1

   Abaqus 2021                                  Date 27-3į┬-2026   Time 14:03:58
   For use by Supplied by Team-SolidSQUAD under license from Dassault Systemes or its subsidiary.



                         The Abaqus Software is a product of:

                           Dassault Systemes SIMULIA Corp.
                           1301 Atwood Avenue, Suite 101W
                              Johnston, RI 02919, USA
 


                   The Abaqus Software is available only under license
                   from Dassault Systemes or its subsidiary and may be
                   used or reproduced only in accordance with the terms
                   of such license.
 
                          On machine LAPTOP-PPCQ9D1U 
                          you are authorized to run
                          Abaqus/Standard until 31-Dec-2055

                          Your site id is:  


 
                    For assistance or any other information you may
                    obtain contact information for your local office
                    from the world wide web at:

                      http://www.3ds.com/products/simulia/locations/

 
                * * * * * * * * * * * * * * * * * * * * * * * * * * * * * * 
                *                                                         * 
                *                   *****************                     * 
                *                   *  N O T I C E  *                     * 
                *                   *****************                     * 
                *                                                         * 
                *                                                         * 
                *                       Abaqus 2021                       * 
                *                                                         * 
                *          BUILD ID: 2020_03_06-22.50.37 167380           * 
                *                                                         * 
                *                                                         * 
                *  Please make sure you are using                         * 
                *  release Abaqus 2021 manuals                            * 
                *  plus the notes accompanying this release.              * 
                *                                                         * 
                *                                                         * 
                *                                                         * 
                *                                                         * 
                * * * * * * * * * * * * * * * * * * * * * * * * * * * * * * 


 



     PROCESSING PART, INSTANCE, AND ASSEMBLY INFORMATION
   *******************************************************


     END PROCESSING PART, INSTANCE, AND ASSEMBLY INFORMATION
   ***********************************************************

1

   Abaqus 2021                                  Date 27-3į┬-2026   Time 14:03:58
   For use by Supplied by Team-SolidSQUAD under license from Dassault Systemes or its subsidiary.

                                                                                     

                                             A B A Q U S   I N P U T   E C H O


                    *Heading
                    *preprint, echo=NO, history=NO, model=NO, contact=NO    
                    ** ----------------------------------------------------------------     
                    ** PART INSTANCE: SITE-1
     LINE     5     **      
                    *Node   
                    1, 85.599998499999998, 41, 0    
                    2, 85.599998499999998, 38.5, 0  
                    3, 150, 38.5, 0 
     LINE    10     4, 150, 41, 0   
                    5, 64.400001500000002, 41, 0    
                    6, 64.400001500000002, 38.5, 0  
                    7, 85.599998499999998, 37.990001700000001, 0    
                    8, 150, 37.990001700000001, 0   
     LINE    15     9, 64.400001500000002, 37.990001700000001, 0    
                    10, 85.599998499999998, 14, 0   
                    11, 85.599998499999998, 0, 0    
                    12, 150, 0, 0   
                    13, 150, 14, 0  
     LINE    20     14, 64.400001500000002, 0, 0    
                    15, 64.400001500000002, 14, 0   
                    16, 0, 14, 0    
                    17, 0, 0, 0     
                    18, 85.599998499999998, 22, 0   
     LINE    25     19, 150, 22, 0  
                    20, 64.400001500000002, 22, 0   
                    21, 0, 22, 0    
                    22, 85.599998499999998, 24, 0   
                    23, 150, 24, 0  
     LINE    30     24, 64.400001500000002, 24, 0   
                    25, 0, 24, 0    
                    26, 85.599998499999998, 25.5, 0 
                    27, 150, 25.5, 0
                    28, 64.400001500000002, 25.5, 0 
     LINE    35     29, 0, 25.5, 0  
                    30, 85.599998499999998, 36.5, 0 
                    31, 150, 36.5, 0
                    32, 0, 38.5, 0  
                    33, 0, 37.990001700000001, 0    
     LINE    40     34, 0, 41, 0    
                    35, 0, 36.5, 0  
                    36, 64.400001500000002, 36.5, 0 
                    37, 0, 29.5, 0  
                    38, 64.400001500000002, 29.5, 0 
     LINE    45     39, 85.599998499999998, 29.5, 0 
                    40, 150, 29.5, 0
                    41, 85.599998499999998, 39.75, 0
                    42, 86.792594899999997, 38.5, 0 
                    43, 87.985183699999993, 38.5, 0 
     LINE    50     44, 89.177780200000001, 38.5, 0 
                    45, 90.370368999999997, 38.5, 0 
                    46, 91.562965399999996, 38.5, 0 
                    47, 92.755554200000006, 38.5, 0 
                    48, 93.948150600000005, 38.5, 0 
     LINE    55     49, 95.140739400000001, 38.5, 0 
                    50, 96.333335899999994, 38.5, 0 
                    51, 97.525924700000004, 38.5, 0 
                    52, 98.718521100000004, 38.5, 0 
                    53, 99.9111099, 38.5, 0 
     LINE    60     54, 101.103706, 38.5, 0 
                    55, 102.296295, 38.5, 0 
                    56, 103.48889200000001, 38.5, 0 
                    57, 104.68147999999999, 38.5, 0 
                    58, 105.874077, 38.5, 0 
     LINE    65     59, 107.066666, 38.5, 0 
                    60, 108.25926200000001, 38.5, 0 
                    61, 109.451851, 38.5, 0 
                    62, 110.644447, 38.5, 0 
                    63, 111.837036, 38.5, 0 
     LINE    70     64, 113.029633, 38.5, 0 
                    65, 114.222221, 38.5, 0 
                    66, 115.414818, 38.5, 0 
                    67, 116.60740699999999, 38.5, 0 
                    68, 117.800003, 38.5, 0 
     LINE    75     69, 118.992592, 38.5, 0 
                    70, 120.185188, 38.5, 0 
                    71, 121.37777699999999, 38.5, 0 
                    72, 122.570374, 38.5, 0 
                    73, 123.762962, 38.5, 0 
     LINE    80     74, 124.95555899999999, 38.5, 0 
                    75, 126.14814800000001, 38.5, 0 
                    76, 127.340744, 38.5, 0 
                    77, 128.53334000000001, 38.5, 0 
                    78, 129.725922, 38.5, 0 
     LINE    85     79, 130.91851800000001, 38.5, 0 
                    80, 132.11111500000001, 38.5, 0 
                    81, 133.30371099999999, 38.5, 0 
                    82, 134.49629200000001, 38.5, 0 
                    83, 135.68888899999999, 38.5, 0 
     LINE    90     84, 136.881485, 38.5, 0 
                    85, 138.07408100000001, 38.5, 0 
                    86, 139.26666299999999, 38.5, 0 
                    87, 140.459259, 38.5, 0 
                    88, 141.65185500000001, 38.5, 0 
     LINE    95     89, 142.84445199999999, 38.5, 0 
                    90, 144.03703300000001, 38.5, 0 
                    91, 145.22962999999999, 38.5, 0 
                    92, 146.42222599999999, 38.5, 0 
                    93, 147.614822, 38.5, 0 
     LINE   100     94, 148.80740399999999, 38.5, 0 
                    95, 150, 39.75, 0       
                    96, 148.80740399999999, 41, 0   
                    97, 147.614822, 41, 0   
                    98, 146.42222599999999, 41, 0   
     LINE   105     99, 145.22962999999999, 41, 0   
                    100, 144.03703300000001, 41, 0  
                    101, 142.84445199999999, 41, 0  
                    102, 141.65185500000001, 41, 0  
                    103, 140.459259, 41, 0  
     LINE   110     104, 139.26666299999999, 41, 0  
                    105, 138.07408100000001, 41, 0  
                    106, 136.881485, 41, 0  
                    107, 135.68888899999999, 41, 0  
                    108, 134.49629200000001, 41, 0  
     LINE   115     109, 133.30371099999999, 41, 0  
                    110, 132.11111500000001, 41, 0  
                    111, 130.91851800000001, 41, 0  
                    112, 129.725922, 41, 0  
                    113, 128.53334000000001, 41, 0  
     LINE   120     114, 127.340744, 41, 0  
                    115, 126.14814800000001, 41, 0  
                    116, 124.95555899999999, 41, 0  
                    117, 123.762962, 41, 0  
                    118, 122.570374, 41, 0  
     LINE   125     119, 121.37777699999999, 41, 0  
                    120, 120.185188, 41, 0  
                    121, 118.992592, 41, 0  
                    122, 117.800003, 41, 0  
                    123, 116.60740699999999, 41, 0  
     LINE   130     124, 115.414818, 41, 0  
                    125, 114.222221, 41, 0  
                    126, 113.029633, 41, 0  
                    127, 111.837036, 41, 0  
                    128, 110.644447, 41, 0  
     LINE   135     129, 109.451851, 41, 0  
                    130, 108.25926200000001, 41, 0  
                    131, 107.066666, 41, 0  
                    132, 105.874077, 41, 0  
                    133, 104.68147999999999, 41, 0  
     LINE   140     134, 103.48889200000001, 41, 0  
                    135, 102.296295, 41, 0  
                    136, 101.103706, 41, 0  
                    137, 99.9111099, 41, 0  
                    138, 98.718521100000004, 41, 0  
     LINE   145     139, 97.525924700000004, 41, 0  
                    140, 96.333335899999994, 41, 0  
                    141, 95.140739400000001, 41, 0  
                    142, 93.948150600000005, 41, 0  
                    143, 92.755554200000006, 41, 0  
     LINE   150     144, 91.562965399999996, 41, 0  
                    145, 90.370368999999997, 41, 0  
                    146, 89.177780200000001, 41, 0  
                    147, 87.985183699999993, 41, 0  
                    148, 86.792594899999997, 41, 0  
     LINE   155     149, 64.400001500000002, 39.75, 0       
                    150, 65.577774000000005, 38.5, 0
                    151, 66.755554200000006, 38.5, 0
                    152, 67.933334400000007, 38.5, 0
                    153, 69.111114499999999, 38.5, 0
     LINE   160     154, 70.288887000000003, 38.5, 0
                    155, 71.466667200000003, 38.5, 0
                    156, 72.644447299999996, 38.5, 0
                    157, 73.822219799999999, 38.5, 0
                    158, 75, 38.5, 0
     LINE   165     159, 76.177780200000001, 38.5, 0
                    160, 77.355552700000004, 38.5, 0
                    161, 78.533332799999997, 38.5, 0
                    162, 79.711112999999997, 38.5, 0
                    163, 80.888885500000001, 38.5, 0
     LINE   170     164, 82.066665599999993, 38.5, 0
                    165, 83.244445799999994, 38.5, 0
                    166, 84.422225999999995, 38.5, 0
                    167, 84.422225999999995, 41, 0  
                    168, 83.244445799999994, 41, 0  
     LINE   175     169, 82.066665599999993, 41, 0  
                    170, 80.888885500000001, 41, 0  
                    171, 79.711112999999997, 41, 0  
                    172, 78.533332799999997, 41, 0  
                    173, 77.355552700000004, 41, 0  
     LINE   180     174, 76.177780200000001, 41, 0  
                    175, 75, 41, 0  
                    176, 73.822219799999999, 41, 0  
                    177, 72.644447299999996, 41, 0  
                    178, 71.466667200000003, 41, 0  
     LINE   185     179, 70.288887000000003, 41, 0  
                    180, 69.111114499999999, 41, 0  
                    181, 67.933334400000007, 41, 0  
                    182, 66.755554200000006, 41, 0  
                    183, 65.577774000000005, 41, 0  
     LINE   190     184, 86.792594899999997, 37.990001700000001, 0  
                    185, 87.985183699999993, 37.990001700000001, 0  
                    186, 89.177780200000001, 37.990001700000001, 0  
                    187, 90.370368999999997, 37.990001700000001, 0  
                    188, 91.562965399999996, 37.990001700000001, 0  
     LINE   195     189, 92.755554200000006, 37.990001700000001, 0  
                    190, 93.948150600000005, 37.990001700000001, 0  
                    191, 95.140739400000001, 37.990001700000001, 0  
                    192, 96.333335899999994, 37.990001700000001, 0  
                    193, 97.525924700000004, 37.990001700000001, 0  
     LINE   200     194, 98.718521100000004, 37.990001700000001, 0  
                    195, 99.9111099, 37.990001700000001, 0  
                    196, 101.103706, 37.990001700000001, 0  
                    197, 102.296295, 37.990001700000001, 0  
                    198, 103.48889200000001, 37.990001700000001, 0  
     LINE   205     199, 104.68147999999999, 37.990001700000001, 0  
                    200, 105.874077, 37.990001700000001, 0  
                    201, 107.066666, 37.990001700000001, 0  
                    202, 108.25926200000001, 37.990001700000001, 0  
                    203, 109.451851, 37.990001700000001, 0  
     LINE   210     204, 110.644447, 37.990001700000001, 0  
                    205, 111.837036, 37.990001700000001, 0  
                    206, 113.029633, 37.990001700000001, 0  
                    207, 114.222221, 37.990001700000001, 0  
                    208, 115.414818, 37.990001700000001, 0  
     LINE   215     209, 116.60740699999999, 37.990001700000001, 0  
                    210, 117.800003, 37.990001700000001, 0  
                    211, 118.992592, 37.990001700000001, 0  
                    212, 120.185188, 37.990001700000001, 0  
                    213, 121.37777699999999, 37.990001700000001, 0  
     LINE   220     214, 122.570374, 37.990001700000001, 0  
                    215, 123.762962, 37.990001700000001, 0  
                    216, 124.95555899999999, 37.990001700000001, 0  
                    217, 126.14814800000001, 37.990001700000001, 0  
                    218, 127.340744, 37.990001700000001, 0  
     LINE   225     219, 128.53334000000001, 37.990001700000001, 0  
                    220, 129.725922, 37.990001700000001, 0  
                    221, 130.91851800000001, 37.990001700000001, 0  
                    222, 132.11111500000001, 37.990001700000001, 0  
                    223, 133.30371099999999, 37.990001700000001, 0  
     LINE   230     224, 134.49629200000001, 37.990001700000001, 0  
                    225, 135.68888899999999, 37.990001700000001, 0  
                    226, 136.881485, 37.990001700000001, 0  
                    227, 138.07408100000001, 37.990001700000001, 0  
                    228, 139.26666299999999, 37.990001700000001, 0  
     LINE   235     229, 140.459259, 37.990001700000001, 0  
                    230, 141.65185500000001, 37.990001700000001, 0  
                    231, 142.84445199999999, 37.990001700000001, 0  
                    232, 144.03703300000001, 37.990001700000001, 0  
                    233, 145.22962999999999, 37.990001700000001, 0  
     LINE   240     234, 146.42222599999999, 37.990001700000001, 0  
                    235, 147.614822, 37.990001700000001, 0  
                    236, 148.80740399999999, 37.990001700000001, 0  
                    237, 65.577774000000005, 37.990001700000001, 0  
                    238, 66.755554200000006, 37.990001700000001, 0  
     LINE   245     239, 67.933334400000007, 37.990001700000001, 0  
                    240, 69.111114499999999, 37.990001700000001, 0  
                    241, 70.288887000000003, 37.990001700000001, 0  
                    242, 71.466667200000003, 37.990001700000001, 0  
                    243, 72.644447299999996, 37.990001700000001, 0  
     LINE   250     244, 73.822219799999999, 37.990001700000001, 0  
                    245, 75, 37.990001700000001, 0  
                    246, 76.177780200000001, 37.990001700000001, 0  
                    247, 77.355552700000004, 37.990001700000001, 0  
                    248, 78.533332799999997, 37.990001700000001, 0  
     LINE   255     249, 79.711112999999997, 37.990001700000001, 0  
                    250, 80.888885500000001, 37.990001700000001, 0  
                    251, 82.066665599999993, 37.990001700000001, 0  
                    252, 83.244445799999994, 37.990001700000001, 0  
                    253, 84.422225999999995, 37.990001700000001, 0  
     LINE   260     254, 85.599998499999998, 12.833333, 0   
                    255, 85.599998499999998, 11.666667, 0   
                    256, 85.599998499999998, 10.5, 0
                    257, 85.599998499999998, 9.3333330199999995, 0  
                    258, 85.599998499999998, 8.1666669800000005, 0  
     LINE   265     259, 85.599998499999998, 7, 0   
                    260, 85.599998499999998, 5.8333334900000002, 0  
                    261, 85.599998499999998, 4.6666665099999998, 0  
                    262, 85.599998499999998, 3.5, 0 
                    263, 85.599998499999998, 2.3333332499999999, 0  
     LINE   270     264, 85.599998499999998, 1.1666666299999999, 0  
                    265, 86.792594899999997, 0, 0   
                    266, 87.985183699999993, 0, 0   
                    267, 89.177780200000001, 0, 0   
                    268, 90.370368999999997, 0, 0   
     LINE   275     269, 91.562965399999996, 0, 0   
                    270, 92.755554200000006, 0, 0   
                    271, 93.948150600000005, 0, 0   
                    272, 95.140739400000001, 0, 0   
                    273, 96.333335899999994, 0, 0   
     LINE   280     274, 97.525924700000004, 0, 0   
                    275, 98.718521100000004, 0, 0   
                    276, 99.9111099, 0, 0   
                    277, 101.103706, 0, 0   
                    278, 102.296295, 0, 0   
     LINE   285     279, 103.48889200000001, 0, 0   
                    280, 104.68147999999999, 0, 0   
                    281, 105.874077, 0, 0   
                    282, 107.066666, 0, 0   
                    283, 108.25926200000001, 0, 0   
     LINE   290     284, 109.451851, 0, 0   
                    285, 110.644447, 0, 0   
                    286, 111.837036, 0, 0   
                    287, 113.029633, 0, 0   
                    288, 114.222221, 0, 0   
     LINE   295     289, 115.414818, 0, 0   
                    290, 116.60740699999999, 0, 0   
                    291, 117.800003, 0, 0   
                    292, 118.992592, 0, 0   
                    293, 120.185188, 0, 0   
     LINE   300     294, 121.37777699999999, 0, 0   
                    295, 122.570374, 0, 0   
                    296, 123.762962, 0, 0   
                    297, 124.95555899999999, 0, 0   
                    298, 126.14814800000001, 0, 0   
     LINE   305     299, 127.340744, 0, 0   
                    300, 128.53334000000001, 0, 0   
                    301, 129.725922, 0, 0   
                    302, 130.91851800000001, 0, 0   
                    303, 132.11111500000001, 0, 0   
     LINE   310     304, 133.30371099999999, 0, 0   
                    305, 134.49629200000001, 0, 0   
                    306, 135.68888899999999, 0, 0   
                    307, 136.881485, 0, 0   
                    308, 138.07408100000001, 0, 0   
     LINE   315     309, 139.26666299999999, 0, 0   
                    310, 140.459259, 0, 0   
                    311, 141.65185500000001, 0, 0   
                    312, 142.84445199999999, 0, 0   
                    313, 144.03703300000001, 0, 0   
     LINE   320     314, 145.22962999999999, 0, 0   
                    315, 146.42222599999999, 0, 0   
                    316, 147.614822, 0, 0   
                    317, 148.80740399999999, 0, 0   
                    318, 150, 1.1666666299999999, 0 
     LINE   325     319, 150, 2.3333332499999999, 0 
                    320, 150, 3.5, 0
                    321, 150, 4.6666665099999998, 0 
                    322, 150, 5.8333334900000002, 0 
                    323, 150, 7, 0  
     LINE   330     324, 150, 8.1666669800000005, 0 
                    325, 150, 9.3333330199999995, 0 
                    326, 150, 10.5, 0       
                    327, 150, 11.666667, 0  
                    328, 150, 12.833333, 0  
     LINE   335     329, 148.80740399999999, 14, 0  
                    330, 147.614822, 14, 0  
                    331, 146.42222599999999, 14, 0  
                    332, 145.22962999999999, 14, 0  
                    333, 144.03703300000001, 14, 0  
     LINE   340     334, 142.84445199999999, 14, 0  
                    335, 141.65185500000001, 14, 0  
                    336, 140.459259, 14, 0  
                    337, 139.26666299999999, 14, 0  
                    338, 138.07408100000001, 14, 0  
     LINE   345     339, 136.881485, 14, 0  
                    340, 135.68888899999999, 14, 0  
                    341, 134.49629200000001, 14, 0  
                    342, 133.30371099999999, 14, 0  
                    343, 132.11111500000001, 14, 0  
     LINE   350     344, 130.91851800000001, 14, 0  
                    345, 129.725922, 14, 0  
                    346, 128.53334000000001, 14, 0  
                    347, 127.340744, 14, 0  
                    348, 126.14814800000001, 14, 0  
     LINE   355     349, 124.95555899999999, 14, 0  
                    350, 123.762962, 14, 0  
                    351, 122.570374, 14, 0  
                    352, 121.37777699999999, 14, 0  
                    353, 120.185188, 14, 0  
     LINE   360     354, 118.992592, 14, 0  
                    355, 117.800003, 14, 0  
                    356, 116.60740699999999, 14, 0  
                    357, 115.414818, 14, 0  
                    358, 114.222221, 14, 0  
     LINE   365     359, 113.029633, 14, 0  
                    360, 111.837036, 14, 0  
                    361, 110.644447, 14, 0  
                    362, 109.451851, 14, 0  
                    363, 108.25926200000001, 14, 0  
     LINE   370     364, 107.066666, 14, 0  
                    365, 105.874077, 14, 0  
                    366, 104.68147999999999, 14, 0  
                    367, 103.48889200000001, 14, 0  
                    368, 102.296295, 14, 0  
     LINE   375     369, 101.103706, 14, 0  
                    370, 99.9111099, 14, 0  
                    371, 98.718521100000004, 14, 0  
                    372, 97.525924700000004, 14, 0  
                    373, 96.333335899999994, 14, 0  
     LINE   380     374, 95.140739400000001, 14, 0  
                    375, 93.948150600000005, 14, 0  
                    376, 92.755554200000006, 14, 0  
                    377, 91.562965399999996, 14, 0  
                    378, 90.370368999999997, 14, 0  
     LINE   385     379, 89.177780200000001, 14, 0  
                    380, 87.985183699999993, 14, 0  
                    381, 86.792594899999997, 14, 0  
                    382, 64.400001500000002, 1.1666666299999999, 0  
                    383, 64.400001500000002, 2.3333332499999999, 0  
     LINE   390     384, 64.400001500000002, 3.5, 0 
                    385, 64.400001500000002, 4.6666665099999998, 0  
                    386, 64.400001500000002, 5.8333334900000002, 0  
                    387, 64.400001500000002, 7, 0   
                    388, 64.400001500000002, 8.1666669800000005, 0  
     LINE   395     389, 64.400001500000002, 9.3333330199999995, 0  
                    390, 64.400001500000002, 10.5, 0
                    391, 64.400001500000002, 11.666667, 0   
                    392, 64.400001500000002, 12.833333, 0   
                    393, 63.207408899999997, 14, 0  
     LINE   400     394, 62.0148163, 14, 0  
                    395, 60.822223700000002, 14, 0  
                    396, 59.629631000000003, 14, 0  
                    397, 58.437038399999999, 14, 0  
                    398, 57.244445800000001, 14, 0  
     LINE   405     399, 56.051853199999996, 14, 0  
                    400, 54.859260599999999, 14, 0  
                    401, 53.6666679, 14, 0  
                    402, 52.474075300000003, 14, 0  
                    403, 51.281482699999998, 14, 0  
     LINE   410     404, 50.0888901, 14, 0  
                    405, 48.896297500000003, 14, 0  
                    406, 47.703704799999997, 14, 0  
                    407, 46.511112199999999, 14, 0  
                    408, 45.318519600000002, 14, 0  
     LINE   415     409, 44.125926999999997, 14, 0  
                    410, 42.9333344, 14, 0  
                    411, 41.740741700000001, 14, 0  
                    412, 40.548149100000003, 14, 0  
                    413, 39.355556499999999, 14, 0  
     LINE   420     414, 38.162963900000001, 14, 0  
                    415, 36.970371200000002, 14, 0  
                    416, 35.777778599999998, 14, 0  
                    417, 34.585186, 14, 0   
                    418, 33.392593400000003, 14, 0  
     LINE   425     419, 32.200000799999998, 14, 0  
                    420, 31.007408099999999, 14, 0  
                    421, 29.814815500000002, 14, 0  
                    422, 28.622222900000001, 14, 0  
                    423, 27.429630299999999, 14, 0  
     LINE   430     424, 26.237037699999998, 14, 0  
                    425, 25.044445, 14, 0   
                    426, 23.851852399999999, 14, 0  
                    427, 22.659259800000001, 14, 0  
                    428, 21.4666672, 14, 0  
     LINE   435     429, 20.274074599999999, 14, 0  
                    430, 19.0814819, 14, 0  
                    431, 17.888889299999999, 14, 0  
                    432, 16.696296700000001, 14, 0  
                    433, 15.5037041, 14, 0  
     LINE   440     434, 14.311111500000001, 14, 0  
                    435, 13.1185188, 14, 0  
                    436, 11.925926199999999, 14, 0  
                    437, 10.7333336, 14, 0  
                    438, 9.5407409699999999, 14, 0  
     LINE   445     439, 8.3481483500000007, 14, 0  
                    440, 7.1555557299999997, 14, 0  
                    441, 5.9629630999999996, 14, 0  
                    442, 4.7703704800000004, 14, 0  
                    443, 3.5777778599999999, 14, 0  
     LINE   450     444, 2.3851852400000002, 14, 0  
                    445, 1.1925926200000001, 14, 0  
                    446, 0, 12.833333, 0    
                    447, 0, 11.666667, 0    
                    448, 0, 10.5, 0 
     LINE   455     449, 0, 9.3333330199999995, 0   
                    450, 0, 8.1666669800000005, 0   
                    451, 0, 7, 0    
                    452, 0, 5.8333334900000002, 0   
                    453, 0, 4.6666665099999998, 0   
     LINE   460     454, 0, 3.5, 0  
                    455, 0, 2.3333332499999999, 0   
                    456, 0, 1.1666666299999999, 0   
                    457, 1.1925926200000001, 0, 0   
                    458, 2.3851852400000002, 0, 0   
     LINE   465     459, 3.5777778599999999, 0, 0   
                    460, 4.7703704800000004, 0, 0   
                    461, 5.9629630999999996, 0, 0   
                    462, 7.1555557299999997, 0, 0   
                    463, 8.3481483500000007, 0, 0   
     LINE   470     464, 9.5407409699999999, 0, 0   
                    465, 10.7333336, 0, 0   
                    466, 11.925926199999999, 0, 0   
                    467, 13.1185188, 0, 0   
                    468, 14.311111500000001, 0, 0   
     LINE   475     469, 15.5037041, 0, 0   
                    470, 16.696296700000001, 0, 0   
                    471, 17.888889299999999, 0, 0   
                    472, 19.0814819, 0, 0   
                    473, 20.274074599999999, 0, 0   
     LINE   480     474, 21.4666672, 0, 0   
                    475, 22.659259800000001, 0, 0   
                    476, 23.851852399999999, 0, 0   
                    477, 25.044445, 0, 0    
                    478, 26.237037699999998, 0, 0   
     LINE   485     479, 27.429630299999999, 0, 0   
                    480, 28.622222900000001, 0, 0   
                    481, 29.814815500000002, 0, 0   
                    482, 31.007408099999999, 0, 0   
                    483, 32.200000799999998, 0, 0   
     LINE   490     484, 33.392593400000003, 0, 0   
                    485, 34.585186, 0, 0    
                    486, 35.777778599999998, 0, 0   
                    487, 36.970371200000002, 0, 0   
                    488, 38.162963900000001, 0, 0   
     LINE   495     489, 39.355556499999999, 0, 0   
                    490, 40.548149100000003, 0, 0   
                    491, 41.740741700000001, 0, 0   
                    492, 42.9333344, 0, 0   
                    493, 44.125926999999997, 0, 0   
     LINE   500     494, 45.318519600000002, 0, 0   
                    495, 46.511112199999999, 0, 0   
                    496, 47.703704799999997, 0, 0   
                    497, 48.896297500000003, 0, 0   
                    498, 50.0888901, 0, 0   
     LINE   505     499, 51.281482699999998, 0, 0   
                    500, 52.474075300000003, 0, 0   
                    501, 53.6666679, 0, 0   
                    502, 54.859260599999999, 0, 0   
                    503, 56.051853199999996, 0, 0   
     LINE   510     504, 57.244445800000001, 0, 0   
                    505, 58.437038399999999, 0, 0   
                    506, 59.629631000000003, 0, 0   
                    507, 60.822223700000002, 0, 0   
                    508, 62.0148163, 0, 0   
     LINE   515     509, 63.207408899999997, 0, 0   
                    510, 85.599998499999998, 20.857143400000002, 0  
                    511, 85.599998499999998, 19.714284899999999, 0  
                    512, 85.599998499999998, 18.571428300000001, 0  
                    513, 85.599998499999998, 17.428571699999999, 0  
     LINE   520     514, 85.599998499999998, 16.285715100000001, 0  
                    515, 85.599998499999998, 15.142857599999999, 0  
                    516, 150, 15.142857599999999, 0 
                    517, 150, 16.285715100000001, 0 
                    518, 150, 17.428571699999999, 0 
     LINE   525     519, 150, 18.571428300000001, 0 
                    520, 150, 19.714284899999999, 0 
                    521, 150, 20.857143400000002, 0 
                    522, 148.80740399999999, 22, 0  
                    523, 147.614822, 22, 0  
     LINE   530     524, 146.42222599999999, 22, 0  
                    525, 145.22962999999999, 22, 0  
                    526, 144.03703300000001, 22, 0  
                    527, 142.84445199999999, 22, 0  
                    528, 141.65185500000001, 22, 0  
     LINE   535     529, 140.459259, 22, 0  
                    530, 139.26666299999999, 22, 0  
                    531, 138.07408100000001, 22, 0  
                    532, 136.881485, 22, 0  
                    533, 135.68888899999999, 22, 0  
     LINE   540     534, 134.49629200000001, 22, 0  
                    535, 133.30371099999999, 22, 0  
                    536, 132.11111500000001, 22, 0  
                    537, 130.91851800000001, 22, 0  
                    538, 129.725922, 22, 0  
     LINE   545     539, 128.53334000000001, 22, 0  
                    540, 127.340744, 22, 0  
                    541, 126.14814800000001, 22, 0  
                    542, 124.95555899999999, 22, 0  
                    543, 123.762962, 22, 0  
     LINE   550     544, 122.570374, 22, 0  
                    545, 121.37777699999999, 22, 0  
                    546, 120.185188, 22, 0  
                    547, 118.992592, 22, 0  
                    548, 117.800003, 22, 0  
     LINE   555     549, 116.60740699999999, 22, 0  
                    550, 115.414818, 22, 0  
                    551, 114.222221, 22, 0  
                    552, 113.029633, 22, 0  
                    553, 111.837036, 22, 0  
     LINE   560     554, 110.644447, 22, 0  
                    555, 109.451851, 22, 0  
                    556, 108.25926200000001, 22, 0  
                    557, 107.066666, 22, 0  
                    558, 105.874077, 22, 0  
     LINE   565     559, 104.68147999999999, 22, 0  
                    560, 103.48889200000001, 22, 0  
                    561, 102.296295, 22, 0  
                    562, 101.103706, 22, 0  
                    563, 99.9111099, 22, 0  
     LINE   570     564, 98.718521100000004, 22, 0  
                    565, 97.525924700000004, 22, 0  
                    566, 96.333335899999994, 22, 0  
                    567, 95.140739400000001, 22, 0  
                    568, 93.948150600000005, 22, 0  
     LINE   575     569, 92.755554200000006, 22, 0  
                    570, 91.562965399999996, 22, 0  
                    571, 90.370368999999997, 22, 0  
                    572, 89.177780200000001, 22, 0  
                    573, 87.985183699999993, 22, 0  
     LINE   580     574, 86.792594899999997, 22, 0  
                    575, 64.400001500000002, 15.142857599999999, 0  
                    576, 64.400001500000002, 16.285715100000001, 0  
                    577, 64.400001500000002, 17.428571699999999, 0  
                    578, 64.400001500000002, 18.571428300000001, 0  
     LINE   585     579, 64.400001500000002, 19.714284899999999, 0  
                    580, 64.400001500000002, 20.857143400000002, 0  
                    581, 63.207408899999997, 22, 0  
                    582, 62.0148163, 22, 0  
                    583, 60.822223700000002, 22, 0  
     LINE   590     584, 59.629631000000003, 22, 0  
                    585, 58.437038399999999, 22, 0  
                    586, 57.244445800000001, 22, 0  
                    587, 56.051853199999996, 22, 0  
                    588, 54.859260599999999, 22, 0  
     LINE   595     589, 53.6666679, 22, 0  
                    590, 52.474075300000003, 22, 0  
                    591, 51.281482699999998, 22, 0  
                    592, 50.0888901, 22, 0  
                    593, 48.896297500000003, 22, 0  
     LINE   600     594, 47.703704799999997, 22, 0  
                    595, 46.511112199999999, 22, 0  
                    596, 45.318519600000002, 22, 0  
                    597, 44.125926999999997, 22, 0  
                    598, 42.9333344, 22, 0  
     LINE   605     599, 41.740741700000001, 22, 0  
                    600, 40.548149100000003, 22, 0  
                    601, 39.355556499999999, 22, 0  
                    602, 38.162963900000001, 22, 0  
                    603, 36.970371200000002, 22, 0  
     LINE   610     604, 35.777778599999998, 22, 0  
                    605, 34.585186, 22, 0   
                    606, 33.392593400000003, 22, 0  
                    607, 32.200000799999998, 22, 0  
                    608, 31.007408099999999, 22, 0  
     LINE   615     609, 29.814815500000002, 22, 0  
                    610, 28.622222900000001, 22, 0  
                    611, 27.429630299999999, 22, 0  
                    612, 26.237037699999998, 22, 0  
                    613, 25.044445, 22, 0   
     LINE   620     614, 23.851852399999999, 22, 0  
                    615, 22.659259800000001, 22, 0  
                    616, 21.4666672, 22, 0  
                    617, 20.274074599999999, 22, 0  
                    618, 19.0814819, 22, 0  
     LINE   625     619, 17.888889299999999, 22, 0  
                    620, 16.696296700000001, 22, 0  
                    621, 15.5037041, 22, 0  
                    622, 14.311111500000001, 22, 0  
                    623, 13.1185188, 22, 0  
     LINE   630     624, 11.925926199999999, 22, 0  
                    625, 10.7333336, 22, 0  
                    626, 9.5407409699999999, 22, 0  
                    627, 8.3481483500000007, 22, 0  
                    628, 7.1555557299999997, 22, 0  
     LINE   635     629, 5.9629630999999996, 22, 0  
                    630, 4.7703704800000004, 22, 0  
                    631, 3.5777778599999999, 22, 0  
                    632, 2.3851852400000002, 22, 0  
                    633, 1.1925926200000001, 22, 0  
     LINE   640     634, 0, 20.857143400000002, 0   
                    635, 0, 19.714284899999999, 0   
                    636, 0, 18.571428300000001, 0   
                    637, 0, 17.428571699999999, 0   
                    638, 0, 16.285715100000001, 0   
     LINE   645     639, 0, 15.142857599999999, 0   
                    640, 85.599998499999998, 23, 0  
                    641, 150, 23, 0 
                    642, 148.80740399999999, 24, 0  
                    643, 147.614822, 24, 0  
     LINE   650     644, 146.42222599999999, 24, 0  
                    645, 145.22962999999999, 24, 0  
                    646, 144.03703300000001, 24, 0  
                    647, 142.84445199999999, 24, 0  
                    648, 141.65185500000001, 24, 0  
     LINE   655     649, 140.459259, 24, 0  
                    650, 139.26666299999999, 24, 0  
                    651, 138.07408100000001, 24, 0  
                    652, 136.881485, 24, 0  
                    653, 135.68888899999999, 24, 0  
     LINE   660     654, 134.49629200000001, 24, 0  
                    655, 133.30371099999999, 24, 0  
                    656, 132.11111500000001, 24, 0  
                    657, 130.91851800000001, 24, 0  
                    658, 129.725922, 24, 0  
     LINE   665     659, 128.53334000000001, 24, 0  
                    660, 127.340744, 24, 0  
                    661, 126.14814800000001, 24, 0  
                    662, 124.95555899999999, 24, 0  
                    663, 123.762962, 24, 0  
     LINE   670     664, 122.570374, 24, 0  
                    665, 121.37777699999999, 24, 0  
                    666, 120.185188, 24, 0  
                    667, 118.992592, 24, 0  
                    668, 117.800003, 24, 0  
     LINE   675     669, 116.60740699999999, 24, 0  
                    670, 115.414818, 24, 0  
                    671, 114.222221, 24, 0  
                    672, 113.029633, 24, 0  
                    673, 111.837036, 24, 0  
     LINE   680     674, 110.644447, 24, 0  
                    675, 109.451851, 24, 0  
                    676, 108.25926200000001, 24, 0  
                    677, 107.066666, 24, 0  
                    678, 105.874077, 24, 0  
     LINE   685     679, 104.68147999999999, 24, 0  
                    680, 103.48889200000001, 24, 0  
                    681, 102.296295, 24, 0  
                    682, 101.103706, 24, 0  
                    683, 99.9111099, 24, 0  
     LINE   690     684, 98.718521100000004, 24, 0  
                    685, 97.525924700000004, 24, 0  
                    686, 96.333335899999994, 24, 0  
                    687, 95.140739400000001, 24, 0  
                    688, 93.948150600000005, 24, 0  
     LINE   695     689, 92.755554200000006, 24, 0  
                    690, 91.562965399999996, 24, 0  
                    691, 90.370368999999997, 24, 0  
                    692, 89.177780200000001, 24, 0  
                    693, 87.985183699999993, 24, 0  
     LINE   700     694, 86.792594899999997, 24, 0  
                    695, 64.400001500000002, 23, 0  
                    696, 63.207408899999997, 24, 0  
                    697, 62.0148163, 24, 0  
                    698, 60.822223700000002, 24, 0  
     LINE   705     699, 59.629631000000003, 24, 0  
                    700, 58.437038399999999, 24, 0  
                    701, 57.244445800000001, 24, 0  
                    702, 56.051853199999996, 24, 0  
                    703, 54.859260599999999, 24, 0  
     LINE   710     704, 53.6666679, 24, 0  
                    705, 52.474075300000003, 24, 0  
                    706, 51.281482699999998, 24, 0  
                    707, 50.0888901, 24, 0  
                    708, 48.896297500000003, 24, 0  
     LINE   715     709, 47.703704799999997, 24, 0  
                    710, 46.511112199999999, 24, 0  
                    711, 45.318519600000002, 24, 0  
                    712, 44.125926999999997, 24, 0  
                    713, 42.9333344, 24, 0  
     LINE   720     714, 41.740741700000001, 24, 0  
                    715, 40.548149100000003, 24, 0  
                    716, 39.355556499999999, 24, 0  
                    717, 38.162963900000001, 24, 0  
                    718, 36.970371200000002, 24, 0  
     LINE   725     719, 35.777778599999998, 24, 0  
                    720, 34.585186, 24, 0   
                    721, 33.392593400000003, 24, 0  
                    722, 32.200000799999998, 24, 0  
                    723, 31.007408099999999, 24, 0  
     LINE   730     724, 29.814815500000002, 24, 0  
                    725, 28.622222900000001, 24, 0  
                    726, 27.429630299999999, 24, 0  
                    727, 26.237037699999998, 24, 0  
                    728, 25.044445, 24, 0   
     LINE   735     729, 23.851852399999999, 24, 0  
                    730, 22.659259800000001, 24, 0  
                    731, 21.4666672, 24, 0  
                    732, 20.274074599999999, 24, 0  
                    733, 19.0814819, 24, 0  
     LINE   740     734, 17.888889299999999, 24, 0  
                    735, 16.696296700000001, 24, 0  
                    736, 15.5037041, 24, 0  
                    737, 14.311111500000001, 24, 0  
                    738, 13.1185188, 24, 0  
     LINE   745     739, 11.925926199999999, 24, 0  
                    740, 10.7333336, 24, 0  
                    741, 9.5407409699999999, 24, 0  
                    742, 8.3481483500000007, 24, 0  
                    743, 7.1555557299999997, 24, 0  
     LINE   750     744, 5.9629630999999996, 24, 0  
                    745, 4.7703704800000004, 24, 0  
                    746, 3.5777778599999999, 24, 0  
                    747, 2.3851852400000002, 24, 0  
                    748, 1.1925926200000001, 24, 0  
     LINE   755     749, 0, 23, 0   
                    750, 148.80740399999999, 25.5, 0
                    751, 147.614822, 25.5, 0
                    752, 146.42222599999999, 25.5, 0
                    753, 145.22962999999999, 25.5, 0
     LINE   760     754, 144.03703300000001, 25.5, 0
                    755, 142.84445199999999, 25.5, 0
                    756, 141.65185500000001, 25.5, 0
                    757, 140.459259, 25.5, 0
                    758, 139.26666299999999, 25.5, 0
     LINE   765     759, 138.07408100000001, 25.5, 0
                    760, 136.881485, 25.5, 0
                    761, 135.68888899999999, 25.5, 0
                    762, 134.49629200000001, 25.5, 0
                    763, 133.30371099999999, 25.5, 0
     LINE   770     764, 132.11111500000001, 25.5, 0
                    765, 130.91851800000001, 25.5, 0
                    766, 129.725922, 25.5, 0
                    767, 128.53334000000001, 25.5, 0
                    768, 127.340744, 25.5, 0
     LINE   775     769, 126.14814800000001, 25.5, 0
                    770, 124.95555899999999, 25.5, 0
                    771, 123.762962, 25.5, 0
                    772, 122.570374, 25.5, 0
                    773, 121.37777699999999, 25.5, 0
     LINE   780     774, 120.185188, 25.5, 0
                    775, 118.992592, 25.5, 0
                    776, 117.800003, 25.5, 0
                    777, 116.60740699999999, 25.5, 0
                    778, 115.414818, 25.5, 0
     LINE   785     779, 114.222221, 25.5, 0
                    780, 113.029633, 25.5, 0
                    781, 111.837036, 25.5, 0
                    782, 110.644447, 25.5, 0
                    783, 109.451851, 25.5, 0
     LINE   790     784, 108.25926200000001, 25.5, 0
                    785, 107.066666, 25.5, 0
                    786, 105.874077, 25.5, 0
                    787, 104.68147999999999, 25.5, 0
                    788, 103.48889200000001, 25.5, 0
     LINE   795     789, 102.296295, 25.5, 0
                    790, 101.103706, 25.5, 0
                    791, 99.9111099, 25.5, 0
                    792, 98.718521100000004, 25.5, 0
                    793, 97.525924700000004, 25.5, 0
     LINE   800     794, 96.333335899999994, 25.5, 0
                    795, 95.140739400000001, 25.5, 0
                    796, 93.948150600000005, 25.5, 0
                    797, 92.755554200000006, 25.5, 0
                    798, 91.562965399999996, 25.5, 0
     LINE   805     799, 90.370368999999997, 25.5, 0
                    800, 89.177780200000001, 25.5, 0
                    801, 87.985183699999993, 25.5, 0
                    802, 86.792594899999997, 25.5, 0
                    803, 63.207408899999997, 25.5, 0
     LINE   810     804, 62.0148163, 25.5, 0
                    805, 60.822223700000002, 25.5, 0
                    806, 59.629631000000003, 25.5, 0
                    807, 58.437038399999999, 25.5, 0
                    808, 57.244445800000001, 25.5, 0
     LINE   815     809, 56.051853199999996, 25.5, 0
                    810, 54.859260599999999, 25.5, 0
                    811, 53.6666679, 25.5, 0
                    812, 52.474075300000003, 25.5, 0
                    813, 51.281482699999998, 25.5, 0
     LINE   820     814, 50.0888901, 25.5, 0
                    815, 48.896297500000003, 25.5, 0
                    816, 47.703704799999997, 25.5, 0
                    817, 46.511112199999999, 25.5, 0
                    818, 45.318519600000002, 25.5, 0
     LINE   825     819, 44.125926999999997, 25.5, 0
                    820, 42.9333344, 25.5, 0
                    821, 41.740741700000001, 25.5, 0
                    822, 40.548149100000003, 25.5, 0
                    823, 39.355556499999999, 25.5, 0
     LINE   830     824, 38.162963900000001, 25.5, 0
                    825, 36.970371200000002, 25.5, 0
                    826, 35.777778599999998, 25.5, 0
                    827, 34.585186, 25.5, 0 
                    828, 33.392593400000003, 25.5, 0
     LINE   835     829, 32.200000799999998, 25.5, 0
                    830, 31.007408099999999, 25.5, 0
                    831, 29.814815500000002, 25.5, 0
                    832, 28.622222900000001, 25.5, 0
                    833, 27.429630299999999, 25.5, 0
     LINE   840     834, 26.237037699999998, 25.5, 0
                    835, 25.044445, 25.5, 0 
                    836, 23.851852399999999, 25.5, 0
                    837, 22.659259800000001, 25.5, 0
                    838, 21.4666672, 25.5, 0
     LINE   845     839, 20.274074599999999, 25.5, 0
                    840, 19.0814819, 25.5, 0
                    841, 17.888889299999999, 25.5, 0
                    842, 16.696296700000001, 25.5, 0
                    843, 15.5037041, 25.5, 0
     LINE   850     844, 14.311111500000001, 25.5, 0
                    845, 13.1185188, 25.5, 0
                    846, 11.925926199999999, 25.5, 0
                    847, 10.7333336, 25.5, 0
                    848, 9.5407409699999999, 25.5, 0
     LINE   855     849, 8.3481483500000007, 25.5, 0
                    850, 7.1555557299999997, 25.5, 0
                    851, 5.9629630999999996, 25.5, 0
                    852, 4.7703704800000004, 25.5, 0
                    853, 3.5777778599999999, 25.5, 0
     LINE   860     854, 2.3851852400000002, 25.5, 0
                    855, 1.1925926200000001, 25.5, 0
                    856, 86.792594899999997, 36.5, 0
                    857, 87.985183699999993, 36.5, 0
                    858, 89.177780200000001, 36.5, 0
     LINE   865     859, 90.370368999999997, 36.5, 0
                    860, 91.562965399999996, 36.5, 0
                    861, 92.755554200000006, 36.5, 0
                    862, 93.948150600000005, 36.5, 0
                    863, 95.140739400000001, 36.5, 0
     LINE   870     864, 96.333335899999994, 36.5, 0
                    865, 97.525924700000004, 36.5, 0
                    866, 98.718521100000004, 36.5, 0
                    867, 99.9111099, 36.5, 0
                    868, 101.103706, 36.5, 0
     LINE   875     869, 102.296295, 36.5, 0
                    870, 103.48889200000001, 36.5, 0
                    871, 104.68147999999999, 36.5, 0
                    872, 105.874077, 36.5, 0
                    873, 107.066666, 36.5, 0
     LINE   880     874, 108.25926200000001, 36.5, 0
                    875, 109.451851, 36.5, 0
                    876, 110.644447, 36.5, 0
                    877, 111.837036, 36.5, 0
                    878, 113.029633, 36.5, 0
     LINE   885     879, 114.222221, 36.5, 0
                    880, 115.414818, 36.5, 0
                    881, 116.60740699999999, 36.5, 0
                    882, 117.800003, 36.5, 0
                    883, 118.992592, 36.5, 0
     LINE   890     884, 120.185188, 36.5, 0
                    885, 121.37777699999999, 36.5, 0
                    886, 122.570374, 36.5, 0
                    887, 123.762962, 36.5, 0
                    888, 124.95555899999999, 36.5, 0
     LINE   895     889, 126.14814800000001, 36.5, 0
                    890, 127.340744, 36.5, 0
                    891, 128.53334000000001, 36.5, 0
                    892, 129.725922, 36.5, 0
                    893, 130.91851800000001, 36.5, 0
     LINE   900     894, 132.11111500000001, 36.5, 0
                    895, 133.30371099999999, 36.5, 0
                    896, 134.49629200000001, 36.5, 0
                    897, 135.68888899999999, 36.5, 0
                    898, 136.881485, 36.5, 0
     LINE   905     899, 138.07408100000001, 36.5, 0
                    900, 139.26666299999999, 36.5, 0
                    901, 140.459259, 36.5, 0
                    902, 141.65185500000001, 36.5, 0
                    903, 142.84445199999999, 36.5, 0
     LINE   910     904, 144.03703300000001, 36.5, 0
                    905, 145.22962999999999, 36.5, 0
                    906, 146.42222599999999, 36.5, 0
                    907, 147.614822, 36.5, 0
                    908, 148.80740399999999, 36.5, 0
     LINE   915     909, 63.207408899999997, 38.5, 0
                    910, 62.0148163, 38.5, 0
                    911, 60.822223700000002, 38.5, 0
                    912, 59.629631000000003, 38.5, 0
                    913, 58.437038399999999, 38.5, 0
     LINE   920     914, 57.244445800000001, 38.5, 0
                    915, 56.051853199999996, 38.5, 0
                    916, 54.859260599999999, 38.5, 0
                    917, 53.6666679, 38.5, 0
                    918, 52.474075300000003, 38.5, 0
     LINE   925     919, 51.281482699999998, 38.5, 0
                    920, 50.0888901, 38.5, 0
                    921, 48.896297500000003, 38.5, 0
                    922, 47.703704799999997, 38.5, 0
                    923, 46.511112199999999, 38.5, 0
     LINE   930     924, 45.318519600000002, 38.5, 0
                    925, 44.125926999999997, 38.5, 0
                    926, 42.9333344, 38.5, 0
                    927, 41.740741700000001, 38.5, 0
                    928, 40.548149100000003, 38.5, 0
     LINE   935     929, 39.355556499999999, 38.5, 0
                    930, 38.162963900000001, 38.5, 0
                    931, 36.970371200000002, 38.5, 0
                    932, 35.777778599999998, 38.5, 0
                    933, 34.585186, 38.5, 0 
     LINE   940     934, 33.392593400000003, 38.5, 0
                    935, 32.200000799999998, 38.5, 0
                    936, 31.007408099999999, 38.5, 0
                    937, 29.814815500000002, 38.5, 0
                    938, 28.622222900000001, 38.5, 0
     LINE   945     939, 27.429630299999999, 38.5, 0
                    940, 26.237037699999998, 38.5, 0
                    941, 25.044445, 38.5, 0 
                    942, 23.851852399999999, 38.5, 0
                    943, 22.659259800000001, 38.5, 0
     LINE   950     944, 21.4666672, 38.5, 0
                    945, 20.274074599999999, 38.5, 0
                    946, 19.0814819, 38.5, 0
                    947, 17.888889299999999, 38.5, 0
                    948, 16.696296700000001, 38.5, 0
     LINE   955     949, 15.5037041, 38.5, 0
                    950, 14.311111500000001, 38.5, 0
                    951, 13.1185188, 38.5, 0
                    952, 11.925926199999999, 38.5, 0
                    953, 10.7333336, 38.5, 0
     LINE   960     954, 9.5407409699999999, 38.5, 0
                    955, 8.3481483500000007, 38.5, 0
                    956, 7.1555557299999997, 38.5, 0
                    957, 5.9629630999999996, 38.5, 0
                    958, 4.7703704800000004, 38.5, 0
     LINE   965     959, 3.5777778599999999, 38.5, 0
                    960, 2.3851852400000002, 38.5, 0
                    961, 1.1925926200000001, 38.5, 0
                    962, 1.1925926200000001, 37.990001700000001, 0  
                    963, 2.3851852400000002, 37.990001700000001, 0  
     LINE   970     964, 3.5777778599999999, 37.990001700000001, 0  
                    965, 4.7703704800000004, 37.990001700000001, 0  
                    966, 5.9629630999999996, 37.990001700000001, 0  
                    967, 7.1555557299999997, 37.990001700000001, 0  
                    968, 8.3481483500000007, 37.990001700000001, 0  
     LINE   975     969, 9.5407409699999999, 37.990001700000001, 0  
                    970, 10.7333336, 37.990001700000001, 0  
                    971, 11.925926199999999, 37.990001700000001, 0  
                    972, 13.1185188, 37.990001700000001, 0  
                    973, 14.311111500000001, 37.990001700000001, 0  
     LINE   980     974, 15.5037041, 37.990001700000001, 0  
                    975, 16.696296700000001, 37.990001700000001, 0  
                    976, 17.888889299999999, 37.990001700000001, 0  
                    977, 19.0814819, 37.990001700000001, 0  
                    978, 20.274074599999999, 37.990001700000001, 0  
     LINE   985     979, 21.4666672, 37.990001700000001, 0  
                    980, 22.659259800000001, 37.990001700000001, 0  
                    981, 23.851852399999999, 37.990001700000001, 0  
                    982, 25.044445, 37.990001700000001, 0   
                    983, 26.237037699999998, 37.990001700000001, 0  
     LINE   990     984, 27.429630299999999, 37.990001700000001, 0  
                    985, 28.622222900000001, 37.990001700000001, 0  
                    986, 29.814815500000002, 37.990001700000001, 0  
                    987, 31.007408099999999, 37.990001700000001, 0  
                    988, 32.200000799999998, 37.990001700000001, 0  
     LINE   995     989, 33.392593400000003, 37.990001700000001, 0  
                    990, 34.585186, 37.990001700000001, 0   
                    991, 35.777778599999998, 37.990001700000001, 0  
                    992, 36.970371200000002, 37.990001700000001, 0  
                    993, 38.162963900000001, 37.990001700000001, 0  
     LINE  1000     994, 39.355556499999999, 37.990001700000001, 0  
                    995, 40.548149100000003, 37.990001700000001, 0  
                    996, 41.740741700000001, 37.990001700000001, 0  
                    997, 42.9333344, 37.990001700000001, 0  
                    998, 44.125926999999997, 37.990001700000001, 0  
     LINE  1005     999, 45.318519600000002, 37.990001700000001, 0  
                    1000, 46.511112199999999, 37.990001700000001, 0 
                    1001, 47.703704799999997, 37.990001700000001, 0 
                    1002, 48.896297500000003, 37.990001700000001, 0 
                    1003, 50.0888901, 37.990001700000001, 0 
     LINE  1010     1004, 51.281482699999998, 37.990001700000001, 0 
                    1005, 52.474075300000003, 37.990001700000001, 0 
                    1006, 53.6666679, 37.990001700000001, 0 
                    1007, 54.859260599999999, 37.990001700000001, 0 
                    1008, 56.051853199999996, 37.990001700000001, 0 
     LINE  1015     1009, 57.244445800000001, 37.990001700000001, 0 
                    1010, 58.437038399999999, 37.990001700000001, 0 
                    1011, 59.629631000000003, 37.990001700000001, 0 
                    1012, 60.822223700000002, 37.990001700000001, 0 
                    1013, 62.0148163, 37.990001700000001, 0 
     LINE  1020     1014, 63.207408899999997, 37.990001700000001, 0 
                    1015, 63.207408899999997, 41, 0 
                    1016, 62.0148163, 41, 0 
                    1017, 60.822223700000002, 41, 0 
                    1018, 59.629631000000003, 41, 0 
     LINE  1025     1019, 58.437038399999999, 41, 0 
                    1020, 57.244445800000001, 41, 0 
                    1021, 56.051853199999996, 41, 0 
                    1022, 54.859260599999999, 41, 0 
                    1023, 53.6666679, 41, 0 
     LINE  1030     1024, 52.474075300000003, 41, 0 
                    1025, 51.281482699999998, 41, 0 
                    1026, 50.0888901, 41, 0 
                    1027, 48.896297500000003, 41, 0 
                    1028, 47.703704799999997, 41, 0 
     LINE  1035     1029, 46.511112199999999, 41, 0 
                    1030, 45.318519600000002, 41, 0 
                    1031, 44.125926999999997, 41, 0 
                    1032, 42.9333344, 41, 0 
                    1033, 41.740741700000001, 41, 0 
     LINE  1040     1034, 40.548149100000003, 41, 0 
                    1035, 39.355556499999999, 41, 0 
                    1036, 38.162963900000001, 41, 0 
                    1037, 36.970371200000002, 41, 0 
                    1038, 35.777778599999998, 41, 0 
     LINE  1045     1039, 34.585186, 41, 0  
                    1040, 33.392593400000003, 41, 0 
                    1041, 32.200000799999998, 41, 0 
                    1042, 31.007408099999999, 41, 0 
                    1043, 29.814815500000002, 41, 0 
     LINE  1050     1044, 28.622222900000001, 41, 0 
                    1045, 27.429630299999999, 41, 0 
                    1046, 26.237037699999998, 41, 0 
                    1047, 25.044445, 41, 0  
                    1048, 23.851852399999999, 41, 0 
     LINE  1055     1049, 22.659259800000001, 41, 0 
                    1050, 21.4666672, 41, 0 
                    1051, 20.274074599999999, 41, 0 
                    1052, 19.0814819, 41, 0 
                    1053, 17.888889299999999, 41, 0 
     LINE  1060     1054, 16.696296700000001, 41, 0 
                    1055, 15.5037041, 41, 0 
                    1056, 14.311111500000001, 41, 0 
                    1057, 13.1185188, 41, 0 
                    1058, 11.925926199999999, 41, 0 
     LINE  1065     1059, 10.7333336, 41, 0 
                    1060, 9.5407409699999999, 41, 0 
                    1061, 8.3481483500000007, 41, 0 
                    1062, 7.1555557299999997, 41, 0 
                    1063, 5.9629630999999996, 41, 0 
     LINE  1070     1064, 4.7703704800000004, 41, 0 
                    1065, 3.5777778599999999, 41, 0 
                    1066, 2.3851852400000002, 41, 0 
                    1067, 1.1925926200000001, 41, 0 
                    1068, 0, 39.75, 0       
     LINE  1075     1069, 1.1925926200000001, 36.5, 0       
                    1070, 2.3851852400000002, 36.5, 0       
                    1071, 3.5777778599999999, 36.5, 0       
                    1072, 4.7703704800000004, 36.5, 0       
                    1073, 5.9629630999999996, 36.5, 0       
     LINE  1080     1074, 7.1555557299999997, 36.5, 0       
                    1075, 8.3481483500000007, 36.5, 0       
                    1076, 9.5407409699999999, 36.5, 0       
                    1077, 10.7333336, 36.5, 0       
                    1078, 11.925926199999999, 36.5, 0       
     LINE  1085     1079, 13.1185188, 36.5, 0       
                    1080, 14.311111500000001, 36.5, 0       
                    1081, 15.5037041, 36.5, 0       
                    1082, 16.696296700000001, 36.5, 0       
                    1083, 17.888889299999999, 36.5, 0       
     LINE  1090     1084, 19.0814819, 36.5, 0       
                    1085, 20.274074599999999, 36.5, 0       
                    1086, 21.4666672, 36.5, 0       
                    1087, 22.659259800000001, 36.5, 0       
                    1088, 23.851852399999999, 36.5, 0       
     LINE  1095     1089, 25.044445, 36.5, 0
                    1090, 26.237037699999998, 36.5, 0       
                    1091, 27.429630299999999, 36.5, 0       
                    1092, 28.622222900000001, 36.5, 0       
                    1093, 29.814815500000002, 36.5, 0       
     LINE  1100     1094, 31.007408099999999, 36.5, 0       
                    1095, 32.200000799999998, 36.5, 0       
                    1096, 33.392593400000003, 36.5, 0       
                    1097, 34.585186, 36.5, 0
                    1098, 35.777778599999998, 36.5, 0       
     LINE  1105     1099, 36.970371200000002, 36.5, 0       
                    1100, 38.162963900000001, 36.5, 0       
                    1101, 39.355556499999999, 36.5, 0       
                    1102, 40.548149100000003, 36.5, 0       
                    1103, 41.740741700000001, 36.5, 0       
     LINE  1110     1104, 42.9333344, 36.5, 0       
                    1105, 44.125926999999997, 36.5, 0       
                    1106, 45.318519600000002, 36.5, 0       
                    1107, 46.511112199999999, 36.5, 0       
                    1108, 47.703704799999997, 36.5, 0       
     LINE  1115     1109, 48.896297500000003, 36.5, 0       
                    1110, 50.0888901, 36.5, 0       
                    1111, 51.281482699999998, 36.5, 0       
                    1112, 52.474075300000003, 36.5, 0       
                    1113, 53.6666679, 36.5, 0       
     LINE  1120     1114, 54.859260599999999, 36.5, 0       
                    1115, 56.051853199999996, 36.5, 0       
                    1116, 57.244445800000001, 36.5, 0       
                    1117, 58.437038399999999, 36.5, 0       
                    1118, 59.629631000000003, 36.5, 0       
     LINE  1125     1119, 60.822223700000002, 36.5, 0       
                    1120, 62.0148163, 36.5, 0       
                    1121, 63.207408899999997, 36.5, 0       
                    1122, 0, 35.3333321, 0  
                    1123, 0, 34.1666679, 0  
     LINE  1130     1124, 0, 33, 0  
                    1125, 0, 31.833334000000001, 0  
                    1126, 0, 30.666665999999999, 0  
                    1127, 1.1925926200000001, 29.5, 0       
                    1128, 2.3851852400000002, 29.5, 0       
     LINE  1135     1129, 3.5777778599999999, 29.5, 0       
                    1130, 4.7703704800000004, 29.5, 0       
                    1131, 5.9629630999999996, 29.5, 0       
                    1132, 7.1555557299999997, 29.5, 0       
                    1133, 8.3481483500000007, 29.5, 0       
     LINE  1140     1134, 9.5407409699999999, 29.5, 0       
                    1135, 10.7333336, 29.5, 0       
                    1136, 11.925926199999999, 29.5, 0       
                    1137, 13.1185188, 29.5, 0       
                    1138, 14.311111500000001, 29.5, 0       
     LINE  1145     1139, 15.5037041, 29.5, 0       
                    1140, 16.696296700000001, 29.5, 0       
                    1141, 17.888889299999999, 29.5, 0       
                    1142, 19.0814819, 29.5, 0       
                    1143, 20.274074599999999, 29.5, 0       
     LINE  1150     1144, 21.4666672, 29.5, 0       
                    1145, 22.659259800000001, 29.5, 0       
                    1146, 23.851852399999999, 29.5, 0       
                    1147, 25.044445, 29.5, 0
                    1148, 26.237037699999998, 29.5, 0       
     LINE  1155     1149, 27.429630299999999, 29.5, 0       
                    1150, 28.622222900000001, 29.5, 0       
                    1151, 29.814815500000002, 29.5, 0       
                    1152, 31.007408099999999, 29.5, 0       
                    1153, 32.200000799999998, 29.5, 0       
     LINE  1160     1154, 33.392593400000003, 29.5, 0       
                    1155, 34.585186, 29.5, 0
                    1156, 35.777778599999998, 29.5, 0       
                    1157, 36.970371200000002, 29.5, 0       
                    1158, 38.162963900000001, 29.5, 0       
     LINE  1165     1159, 39.355556499999999, 29.5, 0       
                    1160, 40.548149100000003, 29.5, 0       
                    1161, 41.740741700000001, 29.5, 0       
                    1162, 42.9333344, 29.5, 0       
                    1163, 44.125926999999997, 29.5, 0       
     LINE  1170     1164, 45.318519600000002, 29.5, 0       
                    1165, 46.511112199999999, 29.5, 0       
                    1166, 47.703704799999997, 29.5, 0       
                    1167, 48.896297500000003, 29.5, 0       
                    1168, 50.0888901, 29.5, 0       
     LINE  1175     1169, 51.281482699999998, 29.5, 0       
                    1170, 52.474075300000003, 29.5, 0       
                    1171, 53.6666679, 29.5, 0       
                    1172, 54.859260599999999, 29.5, 0       
                    1173, 56.051853199999996, 29.5, 0       
     LINE  1180     1174, 57.244445800000001, 29.5, 0       
                    1175, 58.437038399999999, 29.5, 0       
                    1176, 59.629631000000003, 29.5, 0       
                    1177, 60.822223700000002, 29.5, 0       
                    1178, 62.0148163, 29.5, 0       
     LINE  1185     1179, 63.207408899999997, 29.5, 0       
                    1180, 64.400001500000002, 30.666665999999999, 0 
                    1181, 64.400001500000002, 31.833334000000001, 0 
                    1182, 64.400001500000002, 33, 0 
                    1183, 64.400001500000002, 34.1666679, 0 
     LINE  1190     1184, 64.400001500000002, 35.3333321, 0 
                    1185, 85.599998499999998, 35.3333321, 0 
                    1186, 85.599998499999998, 34.1666679, 0 
                    1187, 85.599998499999998, 33, 0 
                    1188, 85.599998499999998, 31.833334000000001, 0 
     LINE  1195     1189, 85.599998499999998, 30.666665999999999, 0 
                    1190, 86.792594899999997, 29.5, 0       
                    1191, 87.985183699999993, 29.5, 0       
                    1192, 89.177780200000001, 29.5, 0       
                    1193, 90.370368999999997, 29.5, 0       
     LINE  1200     1194, 91.562965399999996, 29.5, 0       
                    1195, 92.755554200000006, 29.5, 0       
                    1196, 93.948150600000005, 29.5, 0       
                    1197, 95.140739400000001, 29.5, 0       
                    1198, 96.333335899999994, 29.5, 0       
     LINE  1205     1199, 97.525924700000004, 29.5, 0       
                    1200, 98.718521100000004, 29.5, 0       
                    1201, 99.9111099, 29.5, 0       
                    1202, 101.103706, 29.5, 0       
                    1203, 102.296295, 29.5, 0       
     LINE  1210     1204, 103.48889200000001, 29.5, 0       
                    1205, 104.68147999999999, 29.5, 0       
                    1206, 105.874077, 29.5, 0       
                    1207, 107.066666, 29.5, 0       
                    1208, 108.25926200000001, 29.5, 0       
     LINE  1215     1209, 109.451851, 29.5, 0       
                    1210, 110.644447, 29.5, 0       
                    1211, 111.837036, 29.5, 0       
                    1212, 113.029633, 29.5, 0       
                    1213, 114.222221, 29.5, 0       
     LINE  1220     1214, 115.414818, 29.5, 0       
                    1215, 116.60740699999999, 29.5, 0       
                    1216, 117.800003, 29.5, 0       
                    1217, 118.992592, 29.5, 0       
                    1218, 120.185188, 29.5, 0       
     LINE  1225     1219, 121.37777699999999, 29.5, 0       
                    1220, 122.570374, 29.5, 0       
                    1221, 123.762962, 29.5, 0       
                    1222, 124.95555899999999, 29.5, 0       
                    1223, 126.14814800000001, 29.5, 0       
     LINE  1230     1224, 127.340744, 29.5, 0       
                    1225, 128.53334000000001, 29.5, 0       
                    1226, 129.725922, 29.5, 0       
                    1227, 130.91851800000001, 29.5, 0       
                    1228, 132.11111500000001, 29.5, 0       
     LINE  1235     1229, 133.30371099999999, 29.5, 0       
                    1230, 134.49629200000001, 29.5, 0       
                    1231, 135.68888899999999, 29.5, 0       
                    1232, 136.881485, 29.5, 0       
                    1233, 138.07408100000001, 29.5, 0       
     LINE  1240     1234, 139.26666299999999, 29.5, 0       
                    1235, 140.459259, 29.5, 0       
                    1236, 141.65185500000001, 29.5, 0       
                    1237, 142.84445199999999, 29.5, 0       
                    1238, 144.03703300000001, 29.5, 0       
     LINE  1245     1239, 145.22962999999999, 29.5, 0       
                    1240, 146.42222599999999, 29.5, 0       
                    1241, 147.614822, 29.5, 0       
                    1242, 148.80740399999999, 29.5, 0       
                    1243, 150, 30.666665999999999, 0
     LINE  1250     1244, 150, 31.833334000000001, 0
                    1245, 150, 33, 0
                    1246, 150, 34.1666679, 0
                    1247, 150, 35.3333321, 0
                    1248, 64.400001500000002, 26.833334000000001, 0 
     LINE  1255     1249, 64.400001500000002, 28.166665999999999, 0 
                    1250, 0, 28.166665999999999, 0  
                    1251, 0, 26.833334000000001, 0  
                    1252, 150, 26.833334000000001, 0
                    1253, 150, 28.166665999999999, 0
     LINE  1260     1254, 85.599998499999998, 28.166665999999999, 0 
                    1255, 85.599998499999998, 26.833334000000001, 0 
                    1256, 65.577774000000005, 0, 0  
                    1257, 66.755554200000006, 0, 0  
                    1258, 67.933334400000007, 0, 0  
     LINE  1265     1259, 69.111114499999999, 0, 0  
                    1260, 70.288887000000003, 0, 0  
                    1261, 71.466667200000003, 0, 0  
                    1262, 72.644447299999996, 0, 0  
                    1263, 73.822219799999999, 0, 0  
     LINE  1270     1264, 75, 0, 0  
                    1265, 76.177780200000001, 0, 0  
                    1266, 77.355552700000004, 0, 0  
                    1267, 78.533332799999997, 0, 0  
                    1268, 79.711112999999997, 0, 0  
     LINE  1275     1269, 80.888885500000001, 0, 0  
                    1270, 82.066665599999993, 0, 0  
                    1271, 83.244445799999994, 0, 0  
                    1272, 84.422225999999995, 0, 0  
                    1273, 84.422225999999995, 14, 0 
     LINE  1280     1274, 83.244445799999994, 14, 0 
                    1275, 82.066665599999993, 14, 0 
                    1276, 80.888885500000001, 14, 0 
                    1277, 79.711112999999997, 14, 0 
                    1278, 78.533332799999997, 14, 0 
     LINE  1285     1279, 77.355552700000004, 14, 0 
                    1280, 76.177780200000001, 14, 0 
                    1281, 75, 14, 0 
                    1282, 73.822219799999999, 14, 0 
                    1283, 72.644447299999996, 14, 0 
     LINE  1290     1284, 71.466667200000003, 14, 0 
                    1285, 70.288887000000003, 14, 0 
                    1286, 69.111114499999999, 14, 0 
                    1287, 67.933334400000007, 14, 0 
                    1288, 66.755554200000006, 14, 0 
     LINE  1295     1289, 65.577774000000005, 14, 0 
                    1290, 65.577774000000005, 24, 0 
                    1291, 66.755554200000006, 24, 0 
                    1292, 67.933334400000007, 24, 0 
                    1293, 69.111114499999999, 24, 0 
     LINE  1300     1294, 70.288887000000003, 24, 0 
                    1295, 71.466667200000003, 24, 0 
                    1296, 72.644447299999996, 24, 0 
                    1297, 73.822219799999999, 24, 0 
                    1298, 75, 24, 0 
     LINE  1305     1299, 76.177780200000001, 24, 0 
                    1300, 77.355552700000004, 24, 0 
                    1301, 78.533332799999997, 24, 0 
                    1302, 79.711112999999997, 24, 0 
                    1303, 80.888885500000001, 24, 0 
     LINE  1310     1304, 82.066665599999993, 24, 0 
                    1305, 83.244445799999994, 24, 0 
                    1306, 84.422225999999995, 24, 0 
                    1307, 84.422225999999995, 25.5, 0       
                    1308, 83.244445799999994, 25.5, 0       
     LINE  1315     1309, 82.066665599999993, 25.5, 0       
                    1310, 80.888885500000001, 25.5, 0       
                    1311, 79.711112999999997, 25.5, 0       
                    1312, 78.533332799999997, 25.5, 0       
                    1313, 77.355552700000004, 25.5, 0       
     LINE  1320     1314, 76.177780200000001, 25.5, 0       
                    1315, 75, 25.5, 0       
                    1316, 73.822219799999999, 25.5, 0       
                    1317, 72.644447299999996, 25.5, 0       
                    1318, 71.466667200000003, 25.5, 0       
     LINE  1325     1319, 70.288887000000003, 25.5, 0       
                    1320, 69.111114499999999, 25.5, 0       
                    1321, 67.933334400000007, 25.5, 0       
                    1322, 66.755554200000006, 25.5, 0       
                    1323, 65.577774000000005, 25.5, 0       
     LINE  1330     1324, 84.422225999999995, 22, 0 
                    1325, 83.244445799999994, 22, 0 
                    1326, 82.066665599999993, 22, 0 
                    1327, 80.888885500000001, 22, 0 
                    1328, 79.711112999999997, 22, 0 
     LINE  1335     1329, 78.533332799999997, 22, 0 
                    1330, 77.355552700000004, 22, 0 
                    1331, 76.177780200000001, 22, 0 
                    1332, 75, 22, 0 
                    1333, 73.822219799999999, 22, 0 
     LINE  1340     1334, 72.644447299999996, 22, 0 
                    1335, 71.466667200000003, 22, 0 
                    1336, 70.288887000000003, 22, 0 
                    1337, 69.111114499999999, 22, 0 
                    1338, 67.933334400000007, 22, 0 
     LINE  1345     1339, 66.755554200000006, 22, 0 
                    1340, 65.577774000000005, 22, 0 
                    1341, 86.792594899999997, 39.75, 0      
                    1342, 87.985183699999993, 39.75, 0      
                    1343, 89.177780200000001, 39.75, 0      
     LINE  1350     1344, 90.370368999999997, 39.75, 0      
                    1345, 91.562965399999996, 39.75, 0      
                    1346, 92.755554200000006, 39.75, 0      
                    1347, 93.948150600000005, 39.75, 0      
                    1348, 95.140739400000001, 39.75, 0      
     LINE  1355     1349, 96.333335899999994, 39.75, 0      
                    1350, 97.525924700000004, 39.75, 0      
                    1351, 98.718521100000004, 39.75, 0      
                    1352, 99.9111099, 39.75, 0      
                    1353, 101.103706, 39.75, 0      
     LINE  1360     1354, 102.296295, 39.75, 0      
                    1355, 103.48889200000001, 39.75, 0      
                    1356, 104.68147999999999, 39.75, 0      
                    1357, 105.874077, 39.75, 0      
                    1358, 107.066666, 39.75, 0      
     LINE  1365     1359, 108.25926200000001, 39.75, 0      
                    1360, 109.451851, 39.75, 0      
                    1361, 110.644447, 39.75, 0      
                    1362, 111.837036, 39.75, 0      
                    1363, 113.029633, 39.75, 0      
     LINE  1370     1364, 114.222221, 39.75, 0      
                    1365, 115.414818, 39.75, 0      
                    1366, 116.60740699999999, 39.75, 0      
                    1367, 117.800003, 39.75, 0      
                    1368, 118.992592, 39.75, 0      
     LINE  1375     1369, 120.185188, 39.75, 0      
                    1370, 121.37777699999999, 39.75, 0      
                    1371, 122.570374, 39.75, 0      
                    1372, 123.762962, 39.75, 0      
                    1373, 124.95555899999999, 39.75, 0      
     LINE  1380     1374, 126.14814800000001, 39.75, 0      
                    1375, 127.340744, 39.75, 0      
                    1376, 128.53334000000001, 39.75, 0      
                    1377, 129.725922, 39.75, 0      
                    1378, 130.91851800000001, 39.75, 0      
     LINE  1385     1379, 132.11111500000001, 39.75, 0      
                    1380, 133.30371099999999, 39.75, 0      
                    1381, 134.49629200000001, 39.75, 0      
                    1382, 135.68888899999999, 39.75, 0      
                    1383, 136.881485, 39.75, 0      
     LINE  1390     1384, 138.07408100000001, 39.75, 0      
                    1385, 139.26666299999999, 39.75, 0      
                    1386, 140.459259, 39.75, 0      
                    1387, 141.65185500000001, 39.75, 0      
                    1388, 142.84445199999999, 39.75, 0      
     LINE  1395     1389, 144.03703300000001, 39.75, 0      
                    1390, 145.22962999999999, 39.75, 0      
                    1391, 146.42222599999999, 39.75, 0      
                    1392, 147.614822, 39.75, 0      
                    1393, 148.80740399999999, 39.75, 0      
     LINE  1400     1394, 65.577774000000005, 39.75, 0      
                    1395, 66.755554200000006, 39.75, 0      
                    1396, 67.933334400000007, 39.75, 0      
                    1397, 69.111114499999999, 39.75, 0      
                    1398, 70.288887000000003, 39.75, 0      
     LINE  1405     1399, 71.466667200000003, 39.75, 0      
                    1400, 72.644447299999996, 39.75, 0      
                    1401, 73.822219799999999, 39.75, 0      
                    1402, 75, 39.75, 0      
                    1403, 76.177780200000001, 39.75, 0      
     LINE  1410     1404, 77.355552700000004, 39.75, 0      
                    1405, 78.533332799999997, 39.75, 0      
                    1406, 79.711112999999997, 39.75, 0      
                    1407, 80.888885500000001, 39.75, 0      
                    1408, 82.066665599999993, 39.75, 0      
     LINE  1415     1409, 83.244445799999994, 39.75, 0      
                    1410, 84.422225999999995, 39.75, 0      
                    1411, 86.792594899999997, 12.833333, 0  
                    1412, 86.792594899999997, 11.666667, 0  
                    1413, 86.792594899999997, 10.5, 0       
     LINE  1420     1414, 86.792594899999997, 9.3333330199999995, 0 
                    1415, 86.792594899999997, 8.1666669800000005, 0 
                    1416, 86.792594899999997, 7, 0  
                    1417, 86.792594899999997, 5.8333334900000002, 0 
                    1418, 86.792594899999997, 4.6666665099999998, 0 
[...]
  STRUC-1                                          419        4649      
  STRUC-1                                          420        4650      
  STRUC-1                                          421        4651      
  STRUC-1                                          422        4652      
  STRUC-1                                          423        4653      
  STRUC-1                                          424        4654      
  STRUC-1                                          425        4655      
  STRUC-1                                          426        4656      
  STRUC-1                                          427        4657      
  STRUC-1                                          428        4658      
  STRUC-1                                          429        4659      
  STRUC-1                                          430        4660      
  STRUC-1                                          431        4661      
  STRUC-1                                          432        4662      
  STRUC-1                                          433        4663      
  STRUC-1                                          434        4664      
  STRUC-1                                          435        4665      
  STRUC-1                                          436        4666      
  STRUC-1                                          437        4667      
  STRUC-1                                          438        4668      
  STRUC-1                                          439        4669      
  STRUC-1                                          440        4670      
  STRUC-1                                          441        4671      
  STRUC-1                                          442        4672      
  STRUC-1                                          443        4673      
  STRUC-1                                          444        4674      
  STRUC-1                                          445        4675      
  STRUC-1                                          446        4676      
  STRUC-1                                          447        4677      
  STRUC-1                                          448        4678      
  STRUC-1                                          449        4679      
  STRUC-1                                          450        4680      
  STRUC-1                                          451        4681      
  STRUC-1                                          452        4682      
  STRUC-1                                          453        4683      
  STRUC-1                                          454        4684      
  STRUC-1                                          455        4685      
  STRUC-1                                          456        4686      
  STRUC-1                                          457        4687      
  STRUC-1                                          458        4688      
  STRUC-1                                          459        4689      
  STRUC-1                                          460        4690      
  STRUC-1                                          461        4691      
  STRUC-1                                          462        4692      
  STRUC-1                                          463        4693      
  STRUC-1                                          464        4694      
  STRUC-1                                          465        4695      
  STRUC-1                                          466        4696      
  STRUC-1                                          467        4697      
  STRUC-1                                          468        4698      
  STRUC-1                                          469        4699      
  STRUC-1                                          470        4700      
  STRUC-1                                          471        4701      
  STRUC-1                                          472        4702      
  STRUC-1                                          473        4703      
  STRUC-1                                          474        4704      
  STRUC-1                                          475        4705      
  STRUC-1                                          476        4706      
  STRUC-1                                          477        4707      
  STRUC-1                                          478        4708      
  STRUC-1                                          479        4709      
  STRUC-1                                          480        4710      
  STRUC-1                                          481        4711      
  STRUC-1                                          482        4712      
  STRUC-1                                          483        4713      
  STRUC-1                                          484        4714      
  STRUC-1                                          485        4715      
  STRUC-1                                          486        4716      
  STRUC-1                                          487        4717      
  STRUC-1                                          488        4718      
  STRUC-1                                          489        4719      
  STRUC-1                                          490        4720      
  STRUC-1                                          491        4721      
  STRUC-1                                          492        4722      
  STRUC-1                                          493        4723      
  STRUC-1                                          494        4724      
  STRUC-1                                          495        4725      
  STRUC-1                                          496        4726      
  STRUC-1                                          497        4727      
  STRUC-1                                          498        4728      
  STRUC-1                                          499        4729      
  STRUC-1                                          500        4730      
  STRUC-1                                          501        4731      
  STRUC-1                                          502        4732      
  STRUC-1                                          503        4733      
  STRUC-1                                          504        4734      
  STRUC-1                                          505        4735      
  STRUC-1                                          506        4736      
  STRUC-1                                          507        4737      
  STRUC-1                                          508        4738      
  STRUC-1                                          509        4739      
  STRUC-1                                          510        4740      
  STRUC-1                                          511        4741      
  STRUC-1                                          512        4742      
  STRUC-1                                          513        4743      
  STRUC-1                                          514        4744      
  STRUC-1                                          515        4745      
  STRUC-1                                          516        4746      
  STRUC-1                                          517        4747      
  STRUC-1                                          518        4748      
  STRUC-1                                          519        4749      
  STRUC-1                                          520        4750      
  STRUC-1                                          521        4751      
  STRUC-1                                          522        4752      
  STRUC-1                                          523        4753      
  STRUC-1                                          524        4754      
  STRUC-1                                          525        4755      
  STRUC-1                                          526        4756      
  STRUC-1                                          527        4757      
  STRUC-1                                          528        4758      
  STRUC-1                                          529        4759      
  STRUC-1                                          530        4760      
  STRUC-1                                          531        4761      
  STRUC-1                                          532        4762      
  STRUC-1                                          533        4763      
  STRUC-1                                          534        4764      
  STRUC-1                                          535        4765      
  STRUC-1                                          536        4766      
  STRUC-1                                          537        4767      
  STRUC-1                                          538        4768      
  STRUC-1                                          539        4769      
  STRUC-1                                          540        4770      
  STRUC-1                                          541        4771      
  STRUC-1                                          542        4772      
  STRUC-1                                          543        4773      
  STRUC-1                                          544        4774      
  STRUC-1                                          545        4775      
  STRUC-1                                          546        4776      
  STRUC-1                                          547        4777      
  STRUC-1                                          548        4778      
  STRUC-1                                          549        4779      
  STRUC-1                                          550        4780      
  STRUC-1                                          551        4781      
  STRUC-1                                          552        4782      
  STRUC-1                                          553        4783      
  STRUC-1                                          554        4784      
  STRUC-1                                          555        4785      
  STRUC-1                                          556        4786      
  STRUC-1                                          557        4787      
  STRUC-1                                          558        4788      
  STRUC-1                                          559        4789      
  STRUC-1                                          560        4790      
  STRUC-1                                          561        4791      
  STRUC-1                                          562        4792      
  STRUC-1                                          563        4793      
  STRUC-1                                          564        4794      
  STRUC-1                                          565        4795      
  STRUC-1                                          566        4796      




                            P R O B L E M   S I Z E


          NUMBER OF ELEMENTS IS                                  4796
          NUMBER OF NODES IS                                     6112
          NUMBER OF NODES DEFINED BY THE USER                    4980
          NUMBER OF INTERNAL NODES GENERATED BY THE PROGRAM      1132
          TOTAL NUMBER OF VARIABLES IN THE MODEL                10521
          (DEGREES OF FREEDOM PLUS MAX NO. OF ANY LAGRANGE MULTIPLIER
           VARIABLES. INCLUDE *PRINT,SOLVE=YES TO GET THE ACTUAL NUMBER.)



                              END OF USER INPUT PROCESSING



     JOB TIME SUMMARY
       USER TIME (SEC)      =  0.40000    
       SYSTEM TIME (SEC)    =  0.50000    
       TOTAL CPU TIME (SEC) =  0.90000    
       WALLCLOCK TIME (SEC) =          1
1

   Abaqus 2021                                  Date 27-3į┬-2026   Time 14:04:00
   For use by Supplied by Team-SolidSQUAD under license from Dassault Systemes or its subsidiary.

                                                                                               STEP    1  INCREMENT    1
                                                                                          TIME COMPLETED IN THIS STEP   0.00    


                        S T E P       1     S T A T I C   A N A L Y S I S


                                                                                          

     AUTOMATIC TIME CONTROL WITH -
          A SUGGESTED INITIAL TIME INCREMENT OF                1.000E-02
          AND A TOTAL TIME PERIOD OF                            1.00    
          THE MINIMUM TIME INCREMENT ALLOWED IS                1.000E-05
          THE MAXIMUM TIME INCREMENT ALLOWED IS                1.000E-02

     LINEAR EQUATION SOLVER TYPE         DIRECT SPARSE
  
                   M E M O R Y   E S T I M A T E
  
 PROCESS      FLOATING PT       MINIMUM MEMORY        MEMORY TO
              OPERATIONS           REQUIRED          MINIMIZE I/O
             PER ITERATION           (MB)               (MB)
  
     1          6.88E+07               22                 38
  
 NOTE:
      (1) SINCE ABAQUS DOES NOT PRE-ALLOCATE MEMORY AND ONLY ALLOCATES MEMORY AS NEEDED DURING THE ANALYSIS,
          THE MEMORY REQUIREMENT PRINTED HERE CAN ONLY BE VIEWED AS A GENERAL GUIDELINE BASED ON THE BEST
          KNOWLEDGE AVAILABLE AT THE BEGINNING OF A STEP BEFORE THE SOLUTION PROCESS HAS BEGUN.
      (2) THE ESTIMATE IS NORMALLY UPDATED AT THE BEGINNING OF EVERY STEP. IT IS THE MAXIMUM VALUE OF THE
          ESTIMATE FROM THE CURRENT STEP TO THE LAST STEP OF THE ANALYSIS, WITH UNSYMMETRIC SOLUTION TAKEN
          INTO ACCOUNT IF APPLICABLE. 
      (3) SINCE THE ESTIMATE IS BASED ON THE ACTIVE DEGREES OF FREEDOM IN THE FIRST ITERATION OF THE 
          CURRENT STEP, THE MEMORY ESTIMATE MIGHT BE SIGNIFICANTLY DIFFERENT THAN ACTUAL USAGE FOR 
          PROBLEMS WITH SUBSTANTIAL CHANGES IN ACTIVE DEGREES OF FREEDOM BETWEEN STEPS (OR EVEN WITHIN
          THE SAME STEP). EXAMPLES ARE: PROBLEMS WITH SIGNIFICANT CONTACT CHANGES, PROBLEMS WITH MODEL
          CHANGE, PROBLEMS WITH BOTH STATIC STEP AND STEADY STATE DYNAMIC PROCEDURES WHERE ACOUSTIC 
          ELEMENTS WILL ONLY BE ACTIVATED IN THE STEADY STATE DYNAMIC STEPS.
      (4) FOR MULTI-PROCESS EXECUTION, THE ESTIMATED VALUE OF FLOATING POINT OPERATIONS FOR EACH PROCESS
          IS BASED ON AN INITIAL SCHEDULING OF OPERATIONS AND MIGHT NOT REFLECT THE ACTUAL FLOATING 
          POINT OPERATIONS COMPLETED ON EACH PROCESS. OPERATIONS ARE DYNAMICALLY BALANCED DURING EXECUTION, 
          SO THE ACTUAL BALANCE OF OPERATIONS BETWEEN PROCESSES IS EXPECTED TO BE BETTER THAN THE ESTIMATE
          PRINTED HERE.
      (5) THE UPPER LIMIT OF MEMORY THAT CAN BE ALLOCATED BY ABAQUS WILL IN GENERAL DEPEND ON THE VALUE OF
          THE "MEMORY" PARAMETER AND THE AMOUNT OF PHYSICAL MEMORY AVAILABLE ON THE MACHINE. PLEASE SEE
          THE "ABAQUS ANALYSIS USER'S MANUAL" FOR MORE DETAILS. THE ACTUAL USAGE OF MEMORY AND OF DISK
          SPACE FOR SCRATCH DATA WILL DEPEND ON THIS UPPER LIMIT AS WELL AS THE MEMORY REQUIRED TO MINIMIZE
          I/O. IF THE MEMORY UPPER LIMIT IS GREATER THAN THE MEMORY REQUIRED TO MINIMIZE I/O, THEN THE ACTUAL
          MEMORY USAGE WILL BE CLOSE TO THE ESTIMATED "MEMORY TO MINIMIZE I/O" VALUE, AND THE SCRATCH DISK
          USAGE WILL BE CLOSE-TO-ZERO; OTHERWISE, THE ACTUAL MEMORY USED WILL BE CLOSE TO THE PREVIOUSLY
          MENTIONED MEMORY LIMIT, AND THE SCRATCH DISK USAGE WILL BE ROUGHLY PROPORTIONAL TO THE DIFFERENCE
          BETWEEN THE ESTIMATED "MEMORY TO MINIMIZE I/O" AND THE MEMORY UPPER LIMIT. HOWEVER ACCURATE
          ESTIMATE OF THE SCRATCH DISK SPACE IS NOT POSSIBLE.
      (6) USING "*RESTART, WRITE" CAN GENERATE A LARGE AMOUNT OF DATA WRITTEN IN THE WORK DIRECTORY.
1

   Abaqus 2021                                  Date 27-3į┬-2026   Time 14:04:21
   For use by Supplied by Team-SolidSQUAD under license from Dassault Systemes or its subsidiary.

                                                                                               STEP    2  INCREMENT    1
                                                                                          TIME COMPLETED IN THIS STEP   0.00    
 


                        S T E P       2     M A T R I X   G E N E R A T E
 
  THE FOLLOWING GLOBAL MATRICES WILL BE GENERATED AND WRITTEN TO Job-station-1w_X2.sim

    STIFFNESS
    LOAD
 
  IF MULTI-POINT CONSTRAINTS ARE SPECIFIED IN THE MODEL, THEY WILL BE APPLIED
 
  THE FOLLOWING GLOBAL MATRICES WILL BE WRITTEN TO THE FOLLOWING TEXT FILES

    STIFFNESS          TO Job-station-1w_STIF2.mtx
    LOAD               TO Job-station-1w_LOAD2.mtx
 
  MATRIX OUTPUT FORMAT - MATRIX INPUT
  
                   M E M O R Y   E S T I M A T E
  
 PROCESS      FLOATING PT       MINIMUM MEMORY        MEMORY TO
              OPERATIONS           REQUIRED          MINIMIZE I/O
             PER ITERATION           (MB)               (MB)
  
     1          0.00E+00               23                 26
  
 NOTE:
      (1) SINCE ABAQUS DOES NOT PRE-ALLOCATE MEMORY AND ONLY ALLOCATES MEMORY AS NEEDED DURING THE ANALYSIS,
          THE MEMORY REQUIREMENT PRINTED HERE CAN ONLY BE VIEWED AS A GENERAL GUIDELINE BASED ON THE BEST
          KNOWLEDGE AVAILABLE AT THE BEGINNING OF A STEP BEFORE THE SOLUTION PROCESS HAS BEGUN.
      (2) THE ESTIMATE IS NORMALLY UPDATED AT THE BEGINNING OF EVERY STEP. IT IS THE MAXIMUM VALUE OF THE
          ESTIMATE FROM THE CURRENT STEP TO THE LAST STEP OF THE ANALYSIS, WITH UNSYMMETRIC SOLUTION TAKEN
          INTO ACCOUNT IF APPLICABLE. 
      (3) SINCE THE ESTIMATE IS BASED ON THE ACTIVE DEGREES OF FREEDOM IN THE FIRST ITERATION OF THE 
          CURRENT STEP, THE MEMORY ESTIMATE MIGHT BE SIGNIFICANTLY DIFFERENT THAN ACTUAL USAGE FOR 
          PROBLEMS WITH SUBSTANTIAL CHANGES IN ACTIVE DEGREES OF FREEDOM BETWEEN STEPS (OR EVEN WITHIN
          THE SAME STEP). EXAMPLES ARE: PROBLEMS WITH SIGNIFICANT CONTACT CHANGES, PROBLEMS WITH MODEL
          CHANGE, PROBLEMS WITH BOTH STATIC STEP AND STEADY STATE DYNAMIC PROCEDURES WHERE ACOUSTIC 
          ELEMENTS WILL ONLY BE ACTIVATED IN THE STEADY STATE DYNAMIC STEPS.
      (4) FOR MULTI-PROCESS EXECUTION, THE ESTIMATED VALUE OF FLOATING POINT OPERATIONS FOR EACH PROCESS
          IS BASED ON AN INITIAL SCHEDULING OF OPERATIONS AND MIGHT NOT REFLECT THE ACTUAL FLOATING 
          POINT OPERATIONS COMPLETED ON EACH PROCESS. OPERATIONS ARE DYNAMICALLY BALANCED DURING EXECUTION, 
          SO THE ACTUAL BALANCE OF OPERATIONS BETWEEN PROCESSES IS EXPECTED TO BE BETTER THAN THE ESTIMATE
          PRINTED HERE.
      (5) THE UPPER LIMIT OF MEMORY THAT CAN BE ALLOCATED BY ABAQUS WILL IN GENERAL DEPEND ON THE VALUE OF
          THE "MEMORY" PARAMETER AND THE AMOUNT OF PHYSICAL MEMORY AVAILABLE ON THE MACHINE. PLEASE SEE
          THE "ABAQUS ANALYSIS USER'S MANUAL" FOR MORE DETAILS. THE ACTUAL USAGE OF MEMORY AND OF DISK
          SPACE FOR SCRATCH DATA WILL DEPEND ON THIS UPPER LIMIT AS WELL AS THE MEMORY REQUIRED TO MINIMIZE
          I/O. IF THE MEMORY UPPER LIMIT IS GREATER THAN THE MEMORY REQUIRED TO MINIMIZE I/O, THEN THE ACTUAL
          MEMORY USAGE WILL BE CLOSE TO THE ESTIMATED "MEMORY TO MINIMIZE I/O" VALUE, AND THE SCRATCH DISK
          USAGE WILL BE CLOSE-TO-ZERO; OTHERWISE, THE ACTUAL MEMORY USED WILL BE CLOSE TO THE PREVIOUSLY
          MENTIONED MEMORY LIMIT, AND THE SCRATCH DISK USAGE WILL BE ROUGHLY PROPORTIONAL TO THE DIFFERENCE
          BETWEEN THE ESTIMATED "MEMORY TO MINIMIZE I/O" AND THE MEMORY UPPER LIMIT. HOWEVER ACCURATE
          ESTIMATE OF THE SCRATCH DISK SPACE IS NOT POSSIBLE.
      (6) USING "*RESTART, WRITE" CAN GENERATE A LARGE AMOUNT OF DATA WRITTEN IN THE WORK DIRECTORY.
  


          THE ANALYSIS HAS BEEN COMPLETED



                              ANALYSIS COMPLETE
                              WITH      8 WARNING MESSAGES ON THE DAT FILE



     JOB TIME SUMMARY
       USER TIME (SEC)      =   17.000    
       SYSTEM TIME (SEC)    =   1.4000    
       TOTAL CPU TIME (SEC) =   18.400    
       WALLCLOCK TIME (SEC) =         22
