1

   Abaqus 2021                                  Date 27-3į┬-2026   Time 13:41:03
   For use by Supplied by Team-SolidSQUAD under license from Dassault Systemes or its subsidiary.



                         The Abaqus Software is a product of:

                           Dassault Systemes SIMULIA Corp.
                           1301 Atwood Avenue, Suite 101W
                              Johnston, RI 02919, USA
 


                   The Abaqus Software is available only under license
                   from Dassault Systemes or its subsidiary and may be
                   used or reproduced only in accordance with the terms
                   of such license.
 
                          On machine LAPTOP-PPCQ9D1U 
                          you are authorized to run
                          Abaqus/Standard until 31-Dec-2055

                          Your site id is:  


 
                    For assistance or any other information you may
                    obtain contact information for your local office
                    from the world wide web at:

                      http://www.3ds.com/products/simulia/locations/

 
                * * * * * * * * * * * * * * * * * * * * * * * * * * * * * * 
                *                                                         * 
                *                   *****************                     * 
                *                   *  N O T I C E  *                     * 
                *                   *****************                     * 
                *                                                         * 
                *                                                         * 
                *                       Abaqus 2021                       * 
                *                                                         * 
                *          BUILD ID: 2020_03_06-22.50.37 167380           * 
                *                                                         * 
                *                                                         * 
                *  Please make sure you are using                         * 
                *  release Abaqus 2021 manuals                            * 
                *  plus the notes accompanying this release.              * 
                *                                                         * 
                *                                                         * 
                *                                                         * 
                *                                                         * 
                * * * * * * * * * * * * * * * * * * * * * * * * * * * * * * 


 



     PROCESSING PART, INSTANCE, AND ASSEMBLY INFORMATION
   *******************************************************


     END PROCESSING PART, INSTANCE, AND ASSEMBLY INFORMATION
   ***********************************************************

1

   Abaqus 2021                                  Date 27-3į┬-2026   Time 13:41:03
   For use by Supplied by Team-SolidSQUAD under license from Dassault Systemes or its subsidiary.

                                                                                     

                                             A B A Q U S   I N P U T   E C H O


                    *Heading
                    *preprint, echo=NO, history=NO, model=NO, contact=NO    
                    ** ----------------------------------------------------------------     
                    ** PART INSTANCE: PART-1-1      
     LINE     5     **      
                    *Node   
                    1, 15, 27, 0    
                    2, 15, 24, 0    
                    3, 15, 21, 0    
     LINE    10     4, 15, 18, 0    
                    5, 15, 15, 0    
                    6, 15, 12, 0    
                    7, 15, 9, 0     
                    8, 15, 6, 0     
     LINE    15     9, 15, 3, 0     
                    10, 15, 0, 0    
                    11, 12, 27, 0   
                    12, 18, 27, 0   
                    13, 21, 27, 0   
     LINE    20     14, 24, 27, 0   
                    15, 27, 27, 0   
                    16, 27, 24, 0   
                    17, 24, 24, 0   
                    18, 12, 24, 0   
     LINE    25     19, 9, 27, 0    
                    20, 9, 24, 0    
                    21, 9, 21, 0    
                    22, 9, 18, 0    
                    23, 9, 15, 0    
     LINE    30     24, 9, 12, 0    
                    25, 9, 9, 0     
                    26, 9, 6, 0     
                    27, 9, 3, 0     
                    28, 9, 0, 0     
     LINE    35     29, 12, 21, 0   
                    30, 18, 21, 0   
                    31, 21, 21, 0   
                    32, 24, 21, 0   
                    33, 27, 21, 0   
     LINE    40     34, 27, 18, 0   
                    35, 24, 18, 0   
                    36, 21, 18, 0   
                    37, 18, 18, 0   
                    38, 12, 18, 0   
     LINE    45     39, 6, 18, 0    
                    40, 3, 18, 0    
                    41, 0, 18, 0    
                    42, 0, 15, 0    
                    43, 0, 12, 0    
     LINE    50     44, 3, 12, 0    
                    45, 3, 15, 0    
                    46, 12, 15, 0   
                    47, 18, 15, 0   
                    48, 21, 15, 0   
     LINE    55     49, 24, 15, 0   
                    50, 27, 15, 0   
                    51, 27, 12, 0   
                    52, 24, 12, 0   
                    53, 21, 12, 0   
     LINE    60     54, 18, 12, 0   
                    55, 12, 12, 0   
                    56, 6, 12, 0    
                    57, 12, 9, 0    
                    58, 18, 9, 0    
     LINE    65     59, 21, 9, 0    
                    60, 24, 9, 0    
                    61, 27, 9, 0    
                    62, 27, 6, 0    
                    63, 24, 6, 0    
     LINE    70     64, 21, 6, 0    
                    65, 18, 6, 0    
                    66, 12, 6, 0    
                    67, 6, 6, 0     
                    68, 3, 6, 0     
     LINE    75     69, 0, 6, 0     
                    70, 0, 3, 0     
                    71, 3, 3, 0     
                    72, 18, 3, 0    
                    73, 12, 3, 0    
     LINE    80     74, 6, 3, 0     
                    75, 18, 24, 0   
                    76, 21, 24, 0   
                    77, 6, 27, 0    
                    78, 6, 24, 0    
     LINE    85     79, 3, 27, 0    
                    80, 3, 24, 0    
                    81, 3, 21, 0    
                    82, 6, 21, 0    
                    83, 6, 15, 0    
     LINE    90     84, 6, 9, 0     
                    85, 0, 21, 0    
                    86, 0, 9, 0     
                    87, 3, 9, 0     
                    88, 27, 3, 0    
     LINE    95     89, 0, 0, 0     
                    90, 3, 0, 0     
                    91, 0, 27, 0    
                    92, 0, 24, 0    
                    93, 27, 0, 0    
     LINE   100     94, 24, 3, 0    
                    95, 21, 3, 0    
                    96, 18, 0, 0    
                    97, 12, 0, 0    
                    98, 6, 0, 0     
     LINE   105     99, 24, 0, 0    
                    100, 21, 0, 0   
                    101, 15, 26.799999199999998, 0  
                    102, 15, 26.600000399999999, 0  
                    103, 15, 26.399999600000001, 0  
     LINE   110     104, 15, 26.200000800000002, 0  
                    105, 15, 26, 0  
                    106, 15, 25.799999199999998, 0  
                    107, 15, 25.600000399999999, 0  
                    108, 15, 25.399999600000001, 0  
     LINE   115     109, 15, 25.200000800000002, 0  
                    110, 15, 25, 0  
                    111, 15, 24.799999199999998, 0  
                    112, 15, 24.600000399999999, 0  
                    113, 15, 24.399999600000001, 0  
     LINE   120     114, 15, 24.200000800000002, 0  
                    115, 15, 23.799999199999998, 0  
                    116, 15, 23.600000399999999, 0  
                    117, 15, 23.399999600000001, 0  
                    118, 15, 23.200000800000002, 0  
     LINE   125     119, 15, 23, 0  
                    120, 15, 22.799999199999998, 0  
                    121, 15, 22.600000399999999, 0  
                    122, 15, 22.399999600000001, 0  
                    123, 15, 22.200000800000002, 0  
     LINE   130     124, 15, 22, 0  
                    125, 15, 21.799999199999998, 0  
                    126, 15, 21.600000399999999, 0  
                    127, 15, 21.399999600000001, 0  
                    128, 15, 21.200000800000002, 0  
     LINE   135     129, 15, 20.799999199999998, 0  
                    130, 15, 20.600000399999999, 0  
                    131, 15, 20.399999600000001, 0  
                    132, 15, 20.200000800000002, 0  
                    133, 15, 20, 0  
     LINE   140     134, 15, 19.799999199999998, 0  
                    135, 15, 19.600000399999999, 0  
                    136, 15, 19.399999600000001, 0  
                    137, 15, 19.200000800000002, 0  
                    138, 15, 19, 0  
     LINE   145     139, 15, 18.799999199999998, 0  
                    140, 15, 18.600000399999999, 0  
                    141, 15, 18.399999600000001, 0  
                    142, 15, 18.200000800000002, 0  
                    143, 15, 17.799999199999998, 0  
     LINE   150     144, 15, 17.600000399999999, 0  
                    145, 15, 17.399999600000001, 0  
                    146, 15, 17.200000800000002, 0  
                    147, 15, 17, 0  
                    148, 15, 16.799999199999998, 0  
     LINE   155     149, 15, 16.600000399999999, 0  
                    150, 15, 16.399999600000001, 0  
                    151, 15, 16.200000800000002, 0  
                    152, 15, 16, 0  
                    153, 15, 15.800000199999999, 0  
     LINE   160     154, 15, 15.600000400000001, 0  
                    155, 15, 15.399999599999999, 0  
                    156, 15, 15.199999800000001, 0  
                    157, 15, 14.800000199999999, 0  
                    158, 15, 14.600000400000001, 0  
     LINE   165     159, 15, 14.399999599999999, 0  
                    160, 15, 14.199999800000001, 0  
                    161, 15, 14, 0  
                    162, 15, 13.800000199999999, 0  
                    163, 15, 13.600000400000001, 0  
     LINE   170     164, 15, 13.399999599999999, 0  
                    165, 15, 13.199999800000001, 0  
                    166, 15, 13, 0  
                    167, 15, 12.800000199999999, 0  
                    168, 15, 12.600000400000001, 0  
     LINE   175     169, 15, 12.399999599999999, 0  
                    170, 15, 12.199999800000001, 0  
                    171, 15, 11.800000199999999, 0  
                    172, 15, 11.600000400000001, 0  
                    173, 15, 11.399999599999999, 0  
     LINE   180     174, 15, 11.199999800000001, 0  
                    175, 15, 11, 0  
                    176, 15, 10.800000199999999, 0  
                    177, 15, 10.600000400000001, 0  
                    178, 15, 10.399999599999999, 0  
     LINE   185     179, 15, 10.199999800000001, 0  
                    180, 15, 10, 0  
                    181, 15, 9.8000001900000004, 0  
                    182, 15, 9.6000003800000009, 0  
                    183, 15, 9.3999996199999991, 0  
     LINE   190     184, 15, 9.1999998099999996, 0  
                    185, 15, 8.8000001900000004, 0  
                    186, 15, 8.6000003800000009, 0  
                    187, 15, 8.3999996199999991, 0  
                    188, 15, 8.1999998099999996, 0  
     LINE   195     189, 15, 8, 0   
                    190, 15, 7.8000001900000004, 0  
                    191, 15, 7.5999999000000003, 0  
                    192, 15, 7.4000000999999997, 0  
                    193, 15, 7.1999998099999996, 0  
     LINE   200     194, 15, 7, 0   
                    195, 15, 6.8000001900000004, 0  
                    196, 15, 6.5999999000000003, 0  
                    197, 15, 6.4000000999999997, 0  
                    198, 15, 6.1999998099999996, 0  
     LINE   205     199, 15, 5.8000001900000004, 0  
                    200, 15, 5.5999999000000003, 0  
                    201, 15, 5.4000000999999997, 0  
                    202, 15, 5.1999998099999996, 0  
                    203, 15, 5, 0   
     LINE   210     204, 15, 4.8000001900000004, 0  
                    205, 15, 4.5999999000000003, 0  
                    206, 15, 4.4000000999999997, 0  
                    207, 15, 4.1999998099999996, 0  
                    208, 15, 4, 0   
     LINE   215     209, 15, 3.7999999500000001, 0  
                    210, 15, 3.5999998999999998, 0  
                    211, 15, 3.4000001000000002, 0  
                    212, 15, 3.2000000499999999, 0  
                    213, 15, 2.7999999500000001, 0  
     LINE   220     214, 15, 2.5999998999999998, 0  
                    215, 15, 2.4000001000000002, 0  
                    216, 15, 2.2000000499999999, 0  
                    217, 15, 2, 0   
                    218, 15, 1.7999999499999999, 0  
     LINE   225     219, 15, 1.60000002, 0  
                    220, 15, 1.39999998, 0  
                    221, 15, 1.2000000500000001, 0  
                    222, 15, 1, 0   
                    223, 15, 0.80000001200000004, 0 
     LINE   230     224, 15, 0.60000002399999997, 0 
                    225, 15, 0.40000000600000002, 0 
                    226, 15, 0.20000000300000001, 0 
                    227, 12.199999800000001, 27, 0  
                    228, 12.399999599999999, 27, 0  
     LINE   235     229, 12.600000400000001, 27, 0  
                    230, 12.800000199999999, 27, 0  
                    231, 13, 27, 0  
                    232, 13.199999800000001, 27, 0  
                    233, 13.399999599999999, 27, 0  
     LINE   240     234, 13.600000400000001, 27, 0  
                    235, 13.800000199999999, 27, 0  
                    236, 14, 27, 0  
                    237, 14.199999800000001, 27, 0  
                    238, 14.399999599999999, 27, 0  
     LINE   245     239, 14.600000400000001, 27, 0  
                    240, 14.800000199999999, 27, 0  
                    241, 15.199999800000001, 27, 0  
                    242, 15.399999599999999, 27, 0  
                    243, 15.600000400000001, 27, 0  
     LINE   250     244, 15.800000199999999, 27, 0  
                    245, 16, 27, 0  
                    246, 16.200000800000002, 27, 0  
                    247, 16.399999600000001, 27, 0  
                    248, 16.600000399999999, 27, 0  
     LINE   255     249, 16.799999199999998, 27, 0  
                    250, 17, 27, 0  
                    251, 17.200000800000002, 27, 0  
                    252, 17.399999600000001, 27, 0  
                    253, 17.600000399999999, 27, 0  
     LINE   260     254, 17.799999199999998, 27, 0  
                    255, 18.200000800000002, 27, 0  
                    256, 18.399999600000001, 27, 0  
                    257, 18.600000399999999, 27, 0  
                    258, 18.799999199999998, 27, 0  
     LINE   265     259, 19, 27, 0  
                    260, 19.200000800000002, 27, 0  
                    261, 19.399999600000001, 27, 0  
                    262, 19.600000399999999, 27, 0  
                    263, 19.799999199999998, 27, 0  
     LINE   270     264, 20, 27, 0  
                    265, 20.200000800000002, 27, 0  
                    266, 20.399999600000001, 27, 0  
                    267, 20.600000399999999, 27, 0  
                    268, 20.799999199999998, 27, 0  
     LINE   275     269, 21.200000800000002, 27, 0  
                    270, 21.399999600000001, 27, 0  
                    271, 21.600000399999999, 27, 0  
                    272, 21.799999199999998, 27, 0  
                    273, 22, 27, 0  
     LINE   280     274, 22.200000800000002, 27, 0  
                    275, 22.399999600000001, 27, 0  
                    276, 22.600000399999999, 27, 0  
                    277, 22.799999199999998, 27, 0  
                    278, 23, 27, 0  
     LINE   285     279, 23.200000800000002, 27, 0  
                    280, 23.399999600000001, 27, 0  
                    281, 23.600000399999999, 27, 0  
                    282, 23.799999199999998, 27, 0  
                    283, 24.200000800000002, 27, 0  
     LINE   290     284, 24.399999600000001, 27, 0  
                    285, 24.600000399999999, 27, 0  
                    286, 24.799999199999998, 27, 0  
                    287, 25, 27, 0  
                    288, 25.200000800000002, 27, 0  
     LINE   295     289, 25.399999600000001, 27, 0  
                    290, 25.600000399999999, 27, 0  
                    291, 25.799999199999998, 27, 0  
                    292, 26, 27, 0  
                    293, 26.200000800000002, 27, 0  
     LINE   300     294, 26.399999600000001, 27, 0  
                    295, 26.600000399999999, 27, 0  
                    296, 26.799999199999998, 27, 0  
                    297, 27, 26.799999199999998, 0  
                    298, 27, 26.600000399999999, 0  
     LINE   305     299, 27, 26.399999600000001, 0  
                    300, 27, 26.200000800000002, 0  
                    301, 27, 26, 0  
                    302, 27, 25.799999199999998, 0  
                    303, 27, 25.600000399999999, 0  
     LINE   310     304, 27, 25.399999600000001, 0  
                    305, 27, 25.200000800000002, 0  
                    306, 27, 25, 0  
                    307, 27, 24.799999199999998, 0  
                    308, 27, 24.600000399999999, 0  
     LINE   315     309, 27, 24.399999600000001, 0  
                    310, 27, 24.200000800000002, 0  
                    311, 24.200000800000002, 24, 0  
                    312, 24.399999600000001, 24, 0  
                    313, 24.600000399999999, 24, 0  
     LINE   320     314, 24.799999199999998, 24, 0  
                    315, 25, 24, 0  
                    316, 25.200000800000002, 24, 0  
                    317, 25.399999600000001, 24, 0  
                    318, 25.600000399999999, 24, 0  
     LINE   325     319, 25.799999199999998, 24, 0  
                    320, 26, 24, 0  
                    321, 26.200000800000002, 24, 0  
                    322, 26.399999600000001, 24, 0  
                    323, 26.600000399999999, 24, 0  
     LINE   330     324, 26.799999199999998, 24, 0  
                    325, 24, 26.799999199999998, 0  
                    326, 24, 26.600000399999999, 0  
                    327, 24, 26.399999600000001, 0  
                    328, 24, 26.200000800000002, 0  
     LINE   335     329, 24, 26, 0  
                    330, 24, 25.799999199999998, 0  
                    331, 24, 25.600000399999999, 0  
                    332, 24, 25.399999600000001, 0  
                    333, 24, 25.200000800000002, 0  
     LINE   340     334, 24, 25, 0  
                    335, 24, 24.799999199999998, 0  
                    336, 24, 24.600000399999999, 0  
                    337, 24, 24.399999600000001, 0  
                    338, 24, 24.200000800000002, 0  
     LINE   345     339, 12.199999800000001, 24, 0  
                    340, 12.399999599999999, 24, 0  
                    341, 12.600000400000001, 24, 0  
                    342, 12.800000199999999, 24, 0  
                    343, 13, 24, 0  
     LINE   350     344, 13.199999800000001, 24, 0  
                    345, 13.399999599999999, 24, 0  
                    346, 13.600000400000001, 24, 0  
                    347, 13.800000199999999, 24, 0  
                    348, 14, 24, 0  
     LINE   355     349, 14.199999800000001, 24, 0  
                    350, 14.399999599999999, 24, 0  
                    351, 14.600000400000001, 24, 0  
                    352, 14.800000199999999, 24, 0  
                    353, 12, 26.799999199999998, 0  
     LINE   360     354, 12, 26.600000399999999, 0  
                    355, 12, 26.399999600000001, 0  
                    356, 12, 26.200000800000002, 0  
                    357, 12, 26, 0  
                    358, 12, 25.799999199999998, 0  
     LINE   365     359, 12, 25.600000399999999, 0  
                    360, 12, 25.399999600000001, 0  
                    361, 12, 25.200000800000002, 0  
                    362, 12, 25, 0  
                    363, 12, 24.799999199999998, 0  
     LINE   370     364, 12, 24.600000399999999, 0  
                    365, 12, 24.399999600000001, 0  
                    366, 12, 24.200000800000002, 0  
                    367, 9.1999998099999996, 27, 0  
                    368, 9.3999996199999991, 27, 0  
     LINE   375     369, 9.6000003800000009, 27, 0  
                    370, 9.8000001900000004, 27, 0  
                    371, 10, 27, 0  
                    372, 10.199999800000001, 27, 0  
                    373, 10.399999599999999, 27, 0  
     LINE   380     374, 10.600000400000001, 27, 0  
                    375, 10.800000199999999, 27, 0  
                    376, 11, 27, 0  
                    377, 11.199999800000001, 27, 0  
                    378, 11.399999599999999, 27, 0  
     LINE   385     379, 11.600000400000001, 27, 0  
                    380, 11.800000199999999, 27, 0  
                    381, 9, 26.799999199999998, 0   
                    382, 9, 26.600000399999999, 0   
                    383, 9, 26.399999600000001, 0   
     LINE   390     384, 9, 26.200000800000002, 0   
                    385, 9, 26, 0   
                    386, 9, 25.799999199999998, 0   
                    387, 9, 25.600000399999999, 0   
                    388, 9, 25.399999600000001, 0   
     LINE   395     389, 9, 25.200000800000002, 0   
                    390, 9, 25, 0   
                    391, 9, 24.799999199999998, 0   
                    392, 9, 24.600000399999999, 0   
                    393, 9, 24.399999600000001, 0   
     LINE   400     394, 9, 24.200000800000002, 0   
                    395, 9, 23.799999199999998, 0   
                    396, 9, 23.600000399999999, 0   
                    397, 9, 23.399999600000001, 0   
                    398, 9, 23.200000800000002, 0   
     LINE   405     399, 9, 23, 0   
                    400, 9, 22.799999199999998, 0   
                    401, 9, 22.600000399999999, 0   
                    402, 9, 22.399999600000001, 0   
                    403, 9, 22.200000800000002, 0   
     LINE   410     404, 9, 22, 0   
                    405, 9, 21.799999199999998, 0   
                    406, 9, 21.600000399999999, 0   
                    407, 9, 21.399999600000001, 0   
                    408, 9, 21.200000800000002, 0   
     LINE   415     409, 9, 20.799999199999998, 0   
                    410, 9, 20.600000399999999, 0   
                    411, 9, 20.399999600000001, 0   
                    412, 9, 20.200000800000002, 0   
                    413, 9, 20, 0   
     LINE   420     414, 9, 19.799999199999998, 0   
                    415, 9, 19.600000399999999, 0   
                    416, 9, 19.399999600000001, 0   
                    417, 9, 19.200000800000002, 0   
                    418, 9, 19, 0   
     LINE   425     419, 9, 18.799999199999998, 0   
                    420, 9, 18.600000399999999, 0   
                    421, 9, 18.399999600000001, 0   
                    422, 9, 18.200000800000002, 0   
                    423, 9, 17.799999199999998, 0   
     LINE   430     424, 9, 17.600000399999999, 0   
                    425, 9, 17.399999600000001, 0   
                    426, 9, 17.200000800000002, 0   
                    427, 9, 17, 0   
                    428, 9, 16.799999199999998, 0   
     LINE   435     429, 9, 16.600000399999999, 0   
                    430, 9, 16.399999600000001, 0   
                    431, 9, 16.200000800000002, 0   
                    432, 9, 16, 0   
                    433, 9, 15.800000199999999, 0   
     LINE   440     434, 9, 15.600000400000001, 0   
                    435, 9, 15.399999599999999, 0   
                    436, 9, 15.199999800000001, 0   
                    437, 9, 14.800000199999999, 0   
                    438, 9, 14.600000400000001, 0   
     LINE   445     439, 9, 14.399999599999999, 0   
                    440, 9, 14.199999800000001, 0   
                    441, 9, 14, 0   
                    442, 9, 13.800000199999999, 0   
                    443, 9, 13.600000400000001, 0   
     LINE   450     444, 9, 13.399999599999999, 0   
                    445, 9, 13.199999800000001, 0   
                    446, 9, 13, 0   
                    447, 9, 12.800000199999999, 0   
                    448, 9, 12.600000400000001, 0   
     LINE   455     449, 9, 12.399999599999999, 0   
                    450, 9, 12.199999800000001, 0   
                    451, 9, 11.800000199999999, 0   
                    452, 9, 11.600000400000001, 0   
                    453, 9, 11.399999599999999, 0   
     LINE   460     454, 9, 11.199999800000001, 0   
                    455, 9, 11, 0   
                    456, 9, 10.800000199999999, 0   
                    457, 9, 10.600000400000001, 0   
                    458, 9, 10.399999599999999, 0   
     LINE   465     459, 9, 10.199999800000001, 0   
                    460, 9, 10, 0   
                    461, 9, 9.8000001900000004, 0   
                    462, 9, 9.6000003800000009, 0   
                    463, 9, 9.3999996199999991, 0   
     LINE   470     464, 9, 9.1999998099999996, 0   
                    465, 9, 8.8000001900000004, 0   
                    466, 9, 8.6000003800000009, 0   
                    467, 9, 8.3999996199999991, 0   
                    468, 9, 8.1999998099999996, 0   
     LINE   475     469, 9, 8, 0    
                    470, 9, 7.8000001900000004, 0   
                    471, 9, 7.5999999000000003, 0   
                    472, 9, 7.4000000999999997, 0   
                    473, 9, 7.1999998099999996, 0   
     LINE   480     474, 9, 7, 0    
                    475, 9, 6.8000001900000004, 0   
                    476, 9, 6.5999999000000003, 0   
                    477, 9, 6.4000000999999997, 0   
                    478, 9, 6.1999998099999996, 0   
     LINE   485     479, 9, 5.8000001900000004, 0   
                    480, 9, 5.5999999000000003, 0   
                    481, 9, 5.4000000999999997, 0   
                    482, 9, 5.1999998099999996, 0   
                    483, 9, 5, 0    
     LINE   490     484, 9, 4.8000001900000004, 0   
                    485, 9, 4.5999999000000003, 0   
                    486, 9, 4.4000000999999997, 0   
                    487, 9, 4.1999998099999996, 0   
                    488, 9, 4, 0    
     LINE   495     489, 9, 3.7999999500000001, 0   
                    490, 9, 3.5999998999999998, 0   
                    491, 9, 3.4000001000000002, 0   
                    492, 9, 3.2000000499999999, 0   
                    493, 9, 2.7999999500000001, 0   
     LINE   500     494, 9, 2.5999998999999998, 0   
                    495, 9, 2.4000001000000002, 0   
                    496, 9, 2.2000000499999999, 0   
                    497, 9, 2, 0    
                    498, 9, 1.7999999499999999, 0   
     LINE   505     499, 9, 1.60000002, 0   
                    500, 9, 1.39999998, 0   
                    501, 9, 1.2000000500000001, 0   
                    502, 9, 1, 0    
                    503, 9, 0.80000001200000004, 0  
     LINE   510     504, 9, 0.60000002399999997, 0  
                    505, 9, 0.40000000600000002, 0  
                    506, 9, 0.20000000300000001, 0  
                    507, 12.199999800000001, 21, 0  
                    508, 12.399999599999999, 21, 0  
     LINE   515     509, 12.600000400000001, 21, 0  
                    510, 12.800000199999999, 21, 0  
                    511, 13, 21, 0  
                    512, 13.199999800000001, 21, 0  
                    513, 13.399999599999999, 21, 0  
     LINE   520     514, 13.600000400000001, 21, 0  
                    515, 13.800000199999999, 21, 0  
                    516, 14, 21, 0  
                    517, 14.199999800000001, 21, 0  
                    518, 14.399999599999999, 21, 0  
     LINE   525     519, 14.600000400000001, 21, 0  
                    520, 14.800000199999999, 21, 0  
                    521, 15.199999800000001, 21, 0  
                    522, 15.399999599999999, 21, 0  
                    523, 15.600000400000001, 21, 0  
     LINE   530     524, 15.800000199999999, 21, 0  
                    525, 16, 21, 0  
                    526, 16.200000800000002, 21, 0  
                    527, 16.399999600000001, 21, 0  
                    528, 16.600000399999999, 21, 0  
     LINE   535     529, 16.799999199999998, 21, 0  
                    530, 17, 21, 0  
                    531, 17.200000800000002, 21, 0  
                    532, 17.399999600000001, 21, 0  
                    533, 17.600000399999999, 21, 0  
     LINE   540     534, 17.799999199999998, 21, 0  
                    535, 18.200000800000002, 21, 0  
                    536, 18.399999600000001, 21, 0  
                    537, 18.600000399999999, 21, 0  
                    538, 18.799999199999998, 21, 0  
     LINE   545     539, 19, 21, 0  
                    540, 19.200000800000002, 21, 0  
                    541, 19.399999600000001, 21, 0  
                    542, 19.600000399999999, 21, 0  
                    543, 19.799999199999998, 21, 0  
     LINE   550     544, 20, 21, 0  
                    545, 20.200000800000002, 21, 0  
                    546, 20.399999600000001, 21, 0  
                    547, 20.600000399999999, 21, 0  
                    548, 20.799999199999998, 21, 0  
     LINE   555     549, 21.200000800000002, 21, 0  
                    550, 21.399999600000001, 21, 0  
                    551, 21.600000399999999, 21, 0  
                    552, 21.799999199999998, 21, 0  
                    553, 22, 21, 0  
     LINE   560     554, 22.200000800000002, 21, 0  
                    555, 22.399999600000001, 21, 0  
                    556, 22.600000399999999, 21, 0  
                    557, 22.799999199999998, 21, 0  
                    558, 23, 21, 0  
     LINE   565     559, 23.200000800000002, 21, 0  
                    560, 23.399999600000001, 21, 0  
                    561, 23.600000399999999, 21, 0  
                    562, 23.799999199999998, 21, 0  
                    563, 24.200000800000002, 21, 0  
     LINE   570     564, 24.399999600000001, 21, 0  
                    565, 24.600000399999999, 21, 0  
                    566, 24.799999199999998, 21, 0  
                    567, 25, 21, 0  
                    568, 25.200000800000002, 21, 0  
     LINE   575     569, 25.399999600000001, 21, 0  
                    570, 25.600000399999999, 21, 0  
                    571, 25.799999199999998, 21, 0  
                    572, 26, 21, 0  
                    573, 26.200000800000002, 21, 0  
     LINE   580     574, 26.399999600000001, 21, 0  
                    575, 26.600000399999999, 21, 0  
                    576, 26.799999199999998, 21, 0  
                    577, 27, 20.799999199999998, 0  
                    578, 27, 20.600000399999999, 0  
     LINE   585     579, 27, 20.399999600000001, 0  
                    580, 27, 20.200000800000002, 0  
                    581, 27, 20, 0  
                    582, 27, 19.799999199999998, 0  
                    583, 27, 19.600000399999999, 0  
     LINE   590     584, 27, 19.399999600000001, 0  
                    585, 27, 19.200000800000002, 0  
                    586, 27, 19, 0  
                    587, 27, 18.799999199999998, 0  
                    588, 27, 18.600000399999999, 0  
     LINE   595     589, 27, 18.399999600000001, 0  
                    590, 27, 18.200000800000002, 0  
                    591, 24.200000800000002, 18, 0  
                    592, 24.399999600000001, 18, 0  
                    593, 24.600000399999999, 18, 0  
     LINE   600     594, 24.799999199999998, 18, 0  
                    595, 25, 18, 0  
                    596, 25.200000800000002, 18, 0  
                    597, 25.399999600000001, 18, 0  
                    598, 25.600000399999999, 18, 0  
     LINE   605     599, 25.799999199999998, 18, 0  
                    600, 26, 18, 0  
                    601, 26.200000800000002, 18, 0  
                    602, 26.399999600000001, 18, 0  
                    603, 26.600000399999999, 18, 0  
     LINE   610     604, 26.799999199999998, 18, 0  
                    605, 21.200000800000002, 18, 0  
                    606, 21.399999600000001, 18, 0  
                    607, 21.600000399999999, 18, 0  
                    608, 21.799999199999998, 18, 0  
     LINE   615     609, 22, 18, 0  
                    610, 22.200000800000002, 18, 0  
                    611, 22.399999600000001, 18, 0  
                    612, 22.600000399999999, 18, 0  
                    613, 22.799999199999998, 18, 0  
     LINE   620     614, 23, 18, 0  
                    615, 23.200000800000002, 18, 0  
                    616, 23.399999600000001, 18, 0  
                    617, 23.600000399999999, 18, 0  
                    618, 23.799999199999998, 18, 0  
     LINE   625     619, 18.200000800000002, 18, 0  
                    620, 18.399999600000001, 18, 0  
                    621, 18.600000399999999, 18, 0  
                    622, 18.799999199999998, 18, 0  
                    623, 19, 18, 0  
     LINE   630     624, 19.200000800000002, 18, 0  
                    625, 19.399999600000001, 18, 0  
                    626, 19.600000399999999, 18, 0  
                    627, 19.799999199999998, 18, 0  
                    628, 20, 18, 0  
     LINE   635     629, 20.200000800000002, 18, 0  
                    630, 20.399999600000001, 18, 0  
                    631, 20.600000399999999, 18, 0  
                    632, 20.799999199999998, 18, 0  
                    633, 15.199999800000001, 18, 0  
     LINE   640     634, 15.399999599999999, 18, 0  
                    635, 15.600000400000001, 18, 0  
                    636, 15.800000199999999, 18, 0  
                    637, 16, 18, 0  
                    638, 16.200000800000002, 18, 0  
     LINE   645     639, 16.399999600000001, 18, 0  
                    640, 16.600000399999999, 18, 0  
                    641, 16.799999199999998, 18, 0  
                    642, 17, 18, 0  
                    643, 17.200000800000002, 18, 0  
     LINE   650     644, 17.399999600000001, 18, 0  
                    645, 17.600000399999999, 18, 0  
                    646, 17.799999199999998, 18, 0  
                    647, 12.199999800000001, 18, 0  
                    648, 12.399999599999999, 18, 0  
     LINE   655     649, 12.600000400000001, 18, 0  
                    650, 12.800000199999999, 18, 0  
                    651, 13, 18, 0  
                    652, 13.199999800000001, 18, 0  
                    653, 13.399999599999999, 18, 0  
     LINE   660     654, 13.600000400000001, 18, 0  
                    655, 13.800000199999999, 18, 0  
                    656, 14, 18, 0  
                    657, 14.199999800000001, 18, 0  
                    658, 14.399999599999999, 18, 0  
     LINE   665     659, 14.600000400000001, 18, 0  
                    660, 14.800000199999999, 18, 0  
                    661, 9.1999998099999996, 18, 0  
                    662, 9.3999996199999991, 18, 0  
                    663, 9.6000003800000009, 18, 0  
     LINE   670     664, 9.8000001900000004, 18, 0  
                    665, 10, 18, 0  
                    666, 10.199999800000001, 18, 0  
                    667, 10.399999599999999, 18, 0  
                    668, 10.600000400000001, 18, 0  
     LINE   675     669, 10.800000199999999, 18, 0  
                    670, 11, 18, 0  
                    671, 11.199999800000001, 18, 0  
                    672, 11.399999599999999, 18, 0  
                    673, 11.600000400000001, 18, 0  
     LINE   680     674, 11.800000199999999, 18, 0  
                    675, 6.1999998099999996, 18, 0  
                    676, 6.4000000999999997, 18, 0  
                    677, 6.5999999000000003, 18, 0  
                    678, 6.8000001900000004, 18, 0  
     LINE   685     679, 7, 18, 0   
                    680, 7.1999998099999996, 18, 0  
                    681, 7.4000000999999997, 18, 0  
                    682, 7.5999999000000003, 18, 0  
                    683, 7.8000001900000004, 18, 0  
     LINE   690     684, 8, 18, 0   
                    685, 8.1999998099999996, 18, 0  
                    686, 8.3999996199999991, 18, 0  
                    687, 8.6000003800000009, 18, 0  
                    688, 8.8000001900000004, 18, 0  
     LINE   695     689, 3.2000000499999999, 18, 0  
                    690, 3.4000001000000002, 18, 0  
                    691, 3.5999998999999998, 18, 0  
                    692, 3.7999999500000001, 18, 0  
                    693, 4, 18, 0   
     LINE   700     694, 4.1999998099999996, 18, 0  
                    695, 4.4000000999999997, 18, 0  
                    696, 4.5999999000000003, 18, 0  
                    697, 4.8000001900000004, 18, 0  
                    698, 5, 18, 0   
     LINE   705     699, 5.1999998099999996, 18, 0  
                    700, 5.4000000999999997, 18, 0  
                    701, 5.5999999000000003, 18, 0  
                    702, 5.8000001900000004, 18, 0  
                    703, 0.20000000300000001, 18, 0 
     LINE   710     704, 0.40000000600000002, 18, 0 
                    705, 0.60000002399999997, 18, 0 
                    706, 0.80000001200000004, 18, 0 
                    707, 1, 18, 0   
                    708, 1.2000000500000001, 18, 0  
     LINE   715     709, 1.39999998, 18, 0  
                    710, 1.60000002, 18, 0  
                    711, 1.7999999499999999, 18, 0  
                    712, 2, 18, 0   
                    713, 2.2000000499999999, 18, 0  
     LINE   720     714, 2.4000001000000002, 18, 0  
                    715, 2.5999998999999998, 18, 0  
                    716, 2.7999999500000001, 18, 0  
                    717, 0, 15.199999800000001, 0   
                    718, 0, 15.399999599999999, 0   
     LINE   725     719, 0, 15.600000400000001, 0   
                    720, 0, 15.800000199999999, 0   
                    721, 0, 16, 0   
                    722, 0, 16.200000800000002, 0   
                    723, 0, 16.399999600000001, 0   
     LINE   730     724, 0, 16.600000399999999, 0   
                    725, 0, 16.799999199999998, 0   
                    726, 0, 17, 0   
                    727, 0, 17.200000800000002, 0   
                    728, 0, 17.399999600000001, 0   
     LINE   735     729, 0, 17.600000399999999, 0   
                    730, 0, 17.799999199999998, 0   
                    731, 0, 12.199999800000001, 0   
                    732, 0, 12.399999599999999, 0   
                    733, 0, 12.600000400000001, 0   
     LINE   740     734, 0, 12.800000199999999, 0   
                    735, 0, 13, 0   
                    736, 0, 13.199999800000001, 0   
                    737, 0, 13.399999599999999, 0   
                    738, 0, 13.600000400000001, 0   
     LINE   745     739, 0, 13.800000199999999, 0   
                    740, 0, 14, 0   
                    741, 0, 14.199999800000001, 0   
                    742, 0, 14.399999599999999, 0   
                    743, 0, 14.600000400000001, 0   
     LINE   750     744, 0, 14.800000199999999, 0   
                    745, 0.20000000300000001, 12, 0 
                    746, 0.40000000600000002, 12, 0 
                    747, 0.60000002399999997, 12, 0 
                    748, 0.80000001200000004, 12, 0 
     LINE   755     749, 1, 12, 0   
                    750, 1.2000000500000001, 12, 0  
                    751, 1.39999998, 12, 0  
                    752, 1.60000002, 12, 0  
                    753, 1.7999999499999999, 12, 0  
     LINE   760     754, 2, 12, 0   
                    755, 2.2000000499999999, 12, 0  
                    756, 2.4000001000000002, 12, 0  
                    757, 2.5999998999999998, 12, 0  
                    758, 2.7999999500000001, 12, 0  
     LINE   765     759, 3, 14.800000199999999, 0   
                    760, 3, 14.600000400000001, 0   
                    761, 3, 14.399999599999999, 0   
                    762, 3, 14.199999800000001, 0   
                    763, 3, 14, 0   
     LINE   770     764, 3, 13.800000199999999, 0   
                    765, 3, 13.600000400000001, 0   
                    766, 3, 13.399999599999999, 0   
                    767, 3, 13.199999800000001, 0   
                    768, 3, 13, 0   
     LINE   775     769, 3, 12.800000199999999, 0   
                    770, 3, 12.600000400000001, 0   
                    771, 3, 12.399999599999999, 0   
                    772, 3, 12.199999800000001, 0   
                    773, 0.20000000300000001, 15, 0 
     LINE   780     774, 0.40000000600000002, 15, 0 
                    775, 0.60000002399999997, 15, 0 
                    776, 0.80000001200000004, 15, 0 
                    777, 1, 15, 0   
                    778, 1.2000000500000001, 15, 0  
     LINE   785     779, 1.39999998, 15, 0  
                    780, 1.60000002, 15, 0  
                    781, 1.7999999499999999, 15, 0  
                    782, 2, 15, 0   
                    783, 2.2000000499999999, 15, 0  
     LINE   790     784, 2.4000001000000002, 15, 0  
                    785, 2.5999998999999998, 15, 0  
                    786, 2.7999999500000001, 15, 0  
                    787, 12.199999800000001, 15, 0  
                    788, 12.399999599999999, 15, 0  
     LINE   795     789, 12.600000400000001, 15, 0  
                    790, 12.800000199999999, 15, 0  
                    791, 13, 15, 0  
                    792, 13.199999800000001, 15, 0  
                    793, 13.399999599999999, 15, 0  
     LINE   800     794, 13.600000400000001, 15, 0  
                    795, 13.800000199999999, 15, 0  
                    796, 14, 15, 0  
                    797, 14.199999800000001, 15, 0  
                    798, 14.399999599999999, 15, 0  
     LINE   805     799, 14.600000400000001, 15, 0  
                    800, 14.800000199999999, 15, 0  
                    801, 15.199999800000001, 15, 0  
                    802, 15.399999599999999, 15, 0  
                    803, 15.600000400000001, 15, 0  
     LINE   810     804, 15.800000199999999, 15, 0  
                    805, 16, 15, 0  
                    806, 16.200000800000002, 15, 0  
                    807, 16.399999600000001, 15, 0  
                    808, 16.600000399999999, 15, 0  
     LINE   815     809, 16.799999199999998, 15, 0  
                    810, 17, 15, 0  
                    811, 17.200000800000002, 15, 0  
                    812, 17.399999600000001, 15, 0  
                    813, 17.600000399999999, 15, 0  
     LINE   820     814, 17.799999199999998, 15, 0  
                    815, 18.200000800000002, 15, 0  
                    816, 18.399999600000001, 15, 0  
                    817, 18.600000399999999, 15, 0  
                    818, 18.799999199999998, 15, 0  
     LINE   825     819, 19, 15, 0  
                    820, 19.200000800000002, 15, 0  
                    821, 19.399999600000001, 15, 0  
                    822, 19.600000399999999, 15, 0  
                    823, 19.799999199999998, 15, 0  
     LINE   830     824, 20, 15, 0  
                    825, 20.200000800000002, 15, 0  
                    826, 20.399999600000001, 15, 0  
                    827, 20.600000399999999, 15, 0  
                    828, 20.799999199999998, 15, 0  
     LINE   835     829, 21.200000800000002, 15, 0  
                    830, 21.399999600000001, 15, 0  
                    831, 21.600000399999999, 15, 0  
                    832, 21.799999199999998, 15, 0  
                    833, 22, 15, 0  
     LINE   840     834, 22.200000800000002, 15, 0  
                    835, 22.399999600000001, 15, 0  
                    836, 22.600000399999999, 15, 0  
                    837, 22.799999199999998, 15, 0  
                    838, 23, 15, 0  
     LINE   845     839, 23.200000800000002, 15, 0  
                    840, 23.399999600000001, 15, 0  
                    841, 23.600000399999999, 15, 0  
                    842, 23.799999199999998, 15, 0  
                    843, 24.200000800000002, 15, 0  
     LINE   850     844, 24.399999600000001, 15, 0  
                    845, 24.600000399999999, 15, 0  
                    846, 24.799999199999998, 15, 0  
                    847, 25, 15, 0  
                    848, 25.200000800000002, 15, 0  
     LINE   855     849, 25.399999600000001, 15, 0  
                    850, 25.600000399999999, 15, 0  
                    851, 25.799999199999998, 15, 0  
                    852, 26, 15, 0  
                    853, 26.200000800000002, 15, 0  
     LINE   860     854, 26.399999600000001, 15, 0  
                    855, 26.600000399999999, 15, 0  
                    856, 26.799999199999998, 15, 0  
                    857, 27, 14.800000199999999, 0  
                    858, 27, 14.600000400000001, 0  
     LINE   865     859, 27, 14.399999599999999, 0  
                    860, 27, 14.199999800000001, 0  
                    861, 27, 14, 0  
                    862, 27, 13.800000199999999, 0  
                    863, 27, 13.600000400000001, 0  
     LINE   870     864, 27, 13.399999599999999, 0  
                    865, 27, 13.199999800000001, 0  
                    866, 27, 13, 0  
                    867, 27, 12.800000199999999, 0  
                    868, 27, 12.600000400000001, 0  
     LINE   875     869, 27, 12.399999599999999, 0  
                    870, 27, 12.199999800000001, 0  
                    871, 24.200000800000002, 12, 0  
                    872, 24.399999600000001, 12, 0  
                    873, 24.600000399999999, 12, 0  
     LINE   880     874, 24.799999199999998, 12, 0  
                    875, 25, 12, 0  
                    876, 25.200000800000002, 12, 0  
                    877, 25.399999600000001, 12, 0  
                    878, 25.600000399999999, 12, 0  
     LINE   885     879, 25.799999199999998, 12, 0  
                    880, 26, 12, 0  
                    881, 26.200000800000002, 12, 0  
                    882, 26.399999600000001, 12, 0  
                    883, 26.600000399999999, 12, 0  
     LINE   890     884, 26.799999199999998, 12, 0  
                    885, 21.200000800000002, 12, 0  
                    886, 21.399999600000001, 12, 0  
                    887, 21.600000399999999, 12, 0  
                    888, 21.799999199999998, 12, 0  
     LINE   895     889, 22, 12, 0  
                    890, 22.200000800000002, 12, 0  
                    891, 22.399999600000001, 12, 0  
                    892, 22.600000399999999, 12, 0  
                    893, 22.799999199999998, 12, 0  
     LINE   900     894, 23, 12, 0  
                    895, 23.200000800000002, 12, 0  
                    896, 23.399999600000001, 12, 0  
                    897, 23.600000399999999, 12, 0  
                    898, 23.799999199999998, 12, 0  
     LINE   905     899, 18.200000800000002, 12, 0  
                    900, 18.399999600000001, 12, 0  
                    901, 18.600000399999999, 12, 0  
                    902, 18.799999199999998, 12, 0  
                    903, 19, 12, 0  
     LINE   910     904, 19.200000800000002, 12, 0  
                    905, 19.399999600000001, 12, 0  
                    906, 19.600000399999999, 12, 0  
                    907, 19.799999199999998, 12, 0  
                    908, 20, 12, 0  
     LINE   915     909, 20.200000800000002, 12, 0  
                    910, 20.399999600000001, 12, 0  
                    911, 20.600000399999999, 12, 0  
                    912, 20.799999199999998, 12, 0  
                    913, 15.199999800000001, 12, 0  
     LINE   920     914, 15.399999599999999, 12, 0  
                    915, 15.600000400000001, 12, 0  
                    916, 15.800000199999999, 12, 0  
                    917, 16, 12, 0  
                    918, 16.200000800000002, 12, 0  
     LINE   925     919, 16.399999600000001, 12, 0  
                    920, 16.600000399999999, 12, 0  
                    921, 16.799999199999998, 12, 0  
                    922, 17, 12, 0  
                    923, 17.200000800000002, 12, 0  
     LINE   930     924, 17.399999600000001, 12, 0  
                    925, 17.600000399999999, 12, 0  
                    926, 17.799999199999998, 12, 0  
                    927, 12.199999800000001, 12, 0  
                    928, 12.399999599999999, 12, 0  
     LINE   935     929, 12.600000400000001, 12, 0  
                    930, 12.800000199999999, 12, 0  
                    931, 13, 12, 0  
                    932, 13.199999800000001, 12, 0  
                    933, 13.399999599999999, 12, 0  
     LINE   940     934, 13.600000400000001, 12, 0  
                    935, 13.800000199999999, 12, 0  
                    936, 14, 12, 0  
                    937, 14.199999800000001, 12, 0  
                    938, 14.399999599999999, 12, 0  
     LINE   945     939, 14.600000400000001, 12, 0  
                    940, 14.800000199999999, 12, 0  
                    941, 9.1999998099999996, 12, 0  
                    942, 9.3999996199999991, 12, 0  
                    943, 9.6000003800000009, 12, 0  
     LINE   950     944, 9.8000001900000004, 12, 0  
                    945, 10, 12, 0  
                    946, 10.199999800000001, 12, 0  
                    947, 10.399999599999999, 12, 0  
                    948, 10.600000400000001, 12, 0  
     LINE   955     949, 10.800000199999999, 12, 0  
                    950, 11, 12, 0  
                    951, 11.199999800000001, 12, 0  
                    952, 11.399999599999999, 12, 0  
                    953, 11.600000400000001, 12, 0  
     LINE   960     954, 11.800000199999999, 12, 0  
                    955, 6.1999998099999996, 12, 0  
                    956, 6.4000000999999997, 12, 0  
                    957, 6.5999999000000003, 12, 0  
                    958, 6.8000001900000004, 12, 0  
     LINE   965     959, 7, 12, 0   
                    960, 7.1999998099999996, 12, 0  
                    961, 7.4000000999999997, 12, 0  
                    962, 7.5999999000000003, 12, 0  
                    963, 7.8000001900000004, 12, 0  
     LINE   970     964, 8, 12, 0   
                    965, 8.1999998099999996, 12, 0  
                    966, 8.3999996199999991, 12, 0  
                    967, 8.6000003800000009, 12, 0  
                    968, 8.8000001900000004, 12, 0  
     LINE   975     969, 3.2000000499999999, 12, 0  
                    970, 3.4000001000000002, 12, 0  
                    971, 3.5999998999999998, 12, 0  
                    972, 3.7999999500000001, 12, 0  
                    973, 4, 12, 0   
     LINE   980     974, 4.1999998099999996, 12, 0  
                    975, 4.4000000999999997, 12, 0  
                    976, 4.5999999000000003, 12, 0  
                    977, 4.8000001900000004, 12, 0  
                    978, 5, 12, 0   
     LINE   985     979, 5.1999998099999996, 12, 0  
                    980, 5.4000000999999997, 12, 0  
                    981, 5.5999999000000003, 12, 0  
                    982, 5.8000001900000004, 12, 0  
                    983, 12.199999800000001, 9, 0   
     LINE   990     984, 12.399999599999999, 9, 0   
                    985, 12.600000400000001, 9, 0   
                    986, 12.800000199999999, 9, 0   
                    987, 13, 9, 0   
                    988, 13.199999800000001, 9, 0   
     LINE   995     989, 13.399999599999999, 9, 0   
                    990, 13.600000400000001, 9, 0   
                    991, 13.800000199999999, 9, 0   
                    992, 14, 9, 0   
                    993, 14.199999800000001, 9, 0   
     LINE  1000     994, 14.399999599999999, 9, 0   
                    995, 14.600000400000001, 9, 0   
                    996, 14.800000199999999, 9, 0   
                    997, 15.199999800000001, 9, 0   
                    998, 15.399999599999999, 9, 0   
     LINE  1005     999, 15.600000400000001, 9, 0   
                    1000, 15.800000199999999, 9, 0  
                    1001, 16, 9, 0  
                    1002, 16.200000800000002, 9, 0  
                    1003, 16.399999600000001, 9, 0  
     LINE  1010     1004, 16.600000399999999, 9, 0  
                    1005, 16.799999199999998, 9, 0  
                    1006, 17, 9, 0  
                    1007, 17.200000800000002, 9, 0  
                    1008, 17.399999600000001, 9, 0  
     LINE  1015     1009, 17.600000399999999, 9, 0  
                    1010, 17.799999199999998, 9, 0  
                    1011, 18.200000800000002, 9, 0  
                    1012, 18.399999600000001, 9, 0  
                    1013, 18.600000399999999, 9, 0  
     LINE  1020     1014, 18.799999199999998, 9, 0  
                    1015, 19, 9, 0  
                    1016, 19.200000800000002, 9, 0  
                    1017, 19.399999600000001, 9, 0  
                    1018, 19.600000399999999, 9, 0  
     LINE  1025     1019, 19.799999199999998, 9, 0  
                    1020, 20, 9, 0  
                    1021, 20.200000800000002, 9, 0  
                    1022, 20.399999600000001, 9, 0  
                    1023, 20.600000399999999, 9, 0  
     LINE  1030     1024, 20.799999199999998, 9, 0  
                    1025, 21.200000800000002, 9, 0  
                    1026, 21.399999600000001, 9, 0  
                    1027, 21.600000399999999, 9, 0  
                    1028, 21.799999199999998, 9, 0  
     LINE  1035     1029, 22, 9, 0  
                    1030, 22.200000800000002, 9, 0  
                    1031, 22.399999600000001, 9, 0  
                    1032, 22.600000399999999, 9, 0  
                    1033, 22.799999199999998, 9, 0  
     LINE  1040     1034, 23, 9, 0  
                    1035, 23.200000800000002, 9, 0  
                    1036, 23.399999600000001, 9, 0  
                    1037, 23.600000399999999, 9, 0  
                    1038, 23.799999199999998, 9, 0  
     LINE  1045     1039, 24.200000800000002, 9, 0  
                    1040, 24.399999600000001, 9, 0  
                    1041, 24.600000399999999, 9, 0  
                    1042, 24.799999199999998, 9, 0  
                    1043, 25, 9, 0  
     LINE  1050     1044, 25.200000800000002, 9, 0  
                    1045, 25.399999600000001, 9, 0  
                    1046, 25.600000399999999, 9, 0  
                    1047, 25.799999199999998, 9, 0  
                    1048, 26, 9, 0  
     LINE  1055     1049, 26.200000800000002, 9, 0  
                    1050, 26.399999600000001, 9, 0  
                    1051, 26.600000399999999, 9, 0  
                    1052, 26.799999199999998, 9, 0  
                    1053, 27, 8.8000001900000004, 0 
     LINE  1060     1054, 27, 8.6000003800000009, 0 
                    1055, 27, 8.3999996199999991, 0 
                    1056, 27, 8.1999998099999996, 0 
                    1057, 27, 8, 0  
                    1058, 27, 7.8000001900000004, 0 
     LINE  1065     1059, 27, 7.5999999000000003, 0 
                    1060, 27, 7.4000000999999997, 0 
                    1061, 27, 7.1999998099999996, 0 
                    1062, 27, 7, 0  
                    1063, 27, 6.8000001900000004, 0 
     LINE  1070     1064, 27, 6.5999999000000003, 0 
                    1065, 27, 6.4000000999999997, 0 
                    1066, 27, 6.1999998099999996, 0 
                    1067, 24.200000800000002, 6, 0  
                    1068, 24.399999600000001, 6, 0  
     LINE  1075     1069, 24.600000399999999, 6, 0  
                    1070, 24.799999199999998, 6, 0  
                    1071, 25, 6, 0  
                    1072, 25.200000800000002, 6, 0  
                    1073, 25.399999600000001, 6, 0  
     LINE  1080     1074, 25.600000399999999, 6, 0  
                    1075, 25.799999199999998, 6, 0  
                    1076, 26, 6, 0  
                    1077, 26.200000800000002, 6, 0  
                    1078, 26.399999600000001, 6, 0  
     LINE  1085     1079, 26.600000399999999, 6, 0  
                    1080, 26.799999199999998, 6, 0  
                    1081, 21.200000800000002, 6, 0  
                    1082, 21.399999600000001, 6, 0  
                    1083, 21.600000399999999, 6, 0  
     LINE  1090     1084, 21.799999199999998, 6, 0  
                    1085, 22, 6, 0  
                    1086, 22.200000800000002, 6, 0  
                    1087, 22.399999600000001, 6, 0  
                    1088, 22.600000399999999, 6, 0  
     LINE  1095     1089, 22.799999199999998, 6, 0  
                    1090, 23, 6, 0  
                    1091, 23.200000800000002, 6, 0  
                    1092, 23.399999600000001, 6, 0  
                    1093, 23.600000399999999, 6, 0  
     LINE  1100     1094, 23.799999199999998, 6, 0  
                    1095, 18.200000800000002, 6, 0  
                    1096, 18.399999600000001, 6, 0  
                    1097, 18.600000399999999, 6, 0  
                    1098, 18.799999199999998, 6, 0  
     LINE  1105     1099, 19, 6, 0  
                    1100, 19.200000800000002, 6, 0  
                    1101, 19.399999600000001, 6, 0  
                    1102, 19.600000399999999, 6, 0  
                    1103, 19.799999199999998, 6, 0  
     LINE  1110     1104, 20, 6, 0  
                    1105, 20.200000800000002, 6, 0  
                    1106, 20.399999600000001, 6, 0  
                    1107, 20.600000399999999, 6, 0  
                    1108, 20.799999199999998, 6, 0  
     LINE  1115     1109, 15.199999800000001, 6, 0  
                    1110, 15.399999599999999, 6, 0  
                    1111, 15.600000400000001, 6, 0  
                    1112, 15.800000199999999, 6, 0  
                    1113, 16, 6, 0  
     LINE  1120     1114, 16.200000800000002, 6, 0  
                    1115, 16.399999600000001, 6, 0  
                    1116, 16.600000399999999, 6, 0  
                    1117, 16.799999199999998, 6, 0  
                    1118, 17, 6, 0  
     LINE  1125     1119, 17.200000800000002, 6, 0  
                    1120, 17.399999600000001, 6, 0  
                    1121, 17.600000399999999, 6, 0  
                    1122, 17.799999199999998, 6, 0  
                    1123, 12.199999800000001, 6, 0  
     LINE  1130     1124, 12.399999599999999, 6, 0  
                    1125, 12.600000400000001, 6, 0  
                    1126, 12.800000199999999, 6, 0  
                    1127, 13, 6, 0  
                    1128, 13.199999800000001, 6, 0  
     LINE  1135     1129, 13.399999599999999, 6, 0  
                    1130, 13.600000400000001, 6, 0  
                    1131, 13.800000199999999, 6, 0  
                    1132, 14, 6, 0  
                    1133, 14.199999800000001, 6, 0  
     LINE  1140     1134, 14.399999599999999, 6, 0  
                    1135, 14.600000400000001, 6, 0  
                    1136, 14.800000199999999, 6, 0  
                    1137, 9.1999998099999996, 6, 0  
                    1138, 9.3999996199999991, 6, 0  
     LINE  1145     1139, 9.6000003800000009, 6, 0  
                    1140, 9.8000001900000004, 6, 0  
                    1141, 10, 6, 0  
                    1142, 10.199999800000001, 6, 0  
                    1143, 10.399999599999999, 6, 0  
     LINE  1150     1144, 10.600000400000001, 6, 0  
                    1145, 10.800000199999999, 6, 0  
                    1146, 11, 6, 0  
                    1147, 11.199999800000001, 6, 0  
                    1148, 11.399999599999999, 6, 0  
     LINE  1155     1149, 11.600000400000001, 6, 0  
                    1150, 11.800000199999999, 6, 0  
                    1151, 6.1999998099999996, 6, 0  
                    1152, 6.4000000999999997, 6, 0  
                    1153, 6.5999999000000003, 6, 0  
     LINE  1160     1154, 6.8000001900000004, 6, 0  
                    1155, 7, 6, 0   
                    1156, 7.1999998099999996, 6, 0  
                    1157, 7.4000000999999997, 6, 0  
                    1158, 7.5999999000000003, 6, 0  
     LINE  1165     1159, 7.8000001900000004, 6, 0  
                    1160, 8, 6, 0   
                    1161, 8.1999998099999996, 6, 0  
                    1162, 8.3999996199999991, 6, 0  
                    1163, 8.6000003800000009, 6, 0  
     LINE  1170     1164, 8.8000001900000004, 6, 0  
                    1165, 3.2000000499999999, 6, 0  
                    1166, 3.4000001000000002, 6, 0  
                    1167, 3.5999998999999998, 6, 0  
                    1168, 3.7999999500000001, 6, 0  
     LINE  1175     1169, 4, 6, 0   
                    1170, 4.1999998099999996, 6, 0  
                    1171, 4.4000000999999997, 6, 0  
                    1172, 4.5999999000000003, 6, 0  
                    1173, 4.8000001900000004, 6, 0  
     LINE  1180     1174, 5, 6, 0   
                    1175, 5.1999998099999996, 6, 0  
                    1176, 5.4000000999999997, 6, 0  
                    1177, 5.5999999000000003, 6, 0  
                    1178, 5.8000001900000004, 6, 0  
     LINE  1185     1179, 0.20000000300000001, 6, 0 
                    1180, 0.40000000600000002, 6, 0 
                    1181, 0.60000002399999997, 6, 0 
                    1182, 0.80000001200000004, 6, 0 
                    1183, 1, 6, 0   
     LINE  1190     1184, 1.2000000500000001, 6, 0  
                    1185, 1.39999998, 6, 0  
                    1186, 1.60000002, 6, 0  
                    1187, 1.7999999499999999, 6, 0  
                    1188, 2, 6, 0   
     LINE  1195     1189, 2.2000000499999999, 6, 0  
                    1190, 2.4000001000000002, 6, 0  
                    1191, 2.5999998999999998, 6, 0  
                    1192, 2.7999999500000001, 6, 0  
                    1193, 0, 3.2000000499999999, 0  
     LINE  1200     1194, 0, 3.4000001000000002, 0  
                    1195, 0, 3.5999998999999998, 0  
                    1196, 0, 3.7999999500000001, 0  
                    1197, 0, 4, 0   
                    1198, 0, 4.1999998099999996, 0  
     LINE  1205     1199, 0, 4.4000000999999997, 0  
                    1200, 0, 4.5999999000000003, 0  
                    1201, 0, 4.8000001900000004, 0  
                    1202, 0, 5, 0   
                    1203, 0, 5.1999998099999996, 0  
     LINE  1210     1204, 0, 5.4000000999999997, 0  
                    1205, 0, 5.5999999000000003, 0  
                    1206, 0, 5.8000001900000004, 0  
                    1207, 0.20000000300000001, 3, 0 
                    1208, 0.40000000600000002, 3, 0 
     LINE  1215     1209, 0.60000002399999997, 3, 0 
                    1210, 0.80000001200000004, 3, 0 
                    1211, 1, 3, 0   
                    1212, 1.2000000500000001, 3, 0  
                    1213, 1.39999998, 3, 0  
     LINE  1220     1214, 1.60000002, 3, 0  
                    1215, 1.7999999499999999, 3, 0  
                    1216, 2, 3, 0   
                    1217, 2.2000000499999999, 3, 0  
                    1218, 2.4000001000000002, 3, 0  
     LINE  1225     1219, 2.5999998999999998, 3, 0  
                    1220, 2.7999999500000001, 3, 0  
                    1221, 3, 5.8000001900000004, 0  
                    1222, 3, 5.5999999000000003, 0  
                    1223, 3, 5.4000000999999997, 0  
     LINE  1230     1224, 3, 5.1999998099999996, 0  
                    1225, 3, 5, 0   
                    1226, 3, 4.8000001900000004, 0  
                    1227, 3, 4.5999999000000003, 0  
                    1228, 3, 4.4000000999999997, 0  
     LINE  1235     1229, 3, 4.1999998099999996, 0  
                    1230, 3, 4, 0   
                    1231, 3, 3.7999999500000001, 0  
                    1232, 3, 3.5999998999999998, 0  
                    1233, 3, 3.4000001000000002, 0  
     LINE  1240     1234, 3, 3.2000000499999999, 0  
                    1235, 15.199999800000001, 3, 0  
                    1236, 15.399999599999999, 3, 0  
                    1237, 15.600000400000001, 3, 0  
                    1238, 15.800000199999999, 3, 0  
     LINE  1245     1239, 16, 3, 0  
                    1240, 16.200000800000002, 3, 0  
                    1241, 16.399999600000001, 3, 0  
                    1242, 16.600000399999999, 3, 0  
                    1243, 16.799999199999998, 3, 0  
     LINE  1250     1244, 17, 3, 0  
                    1245, 17.200000800000002, 3, 0  
                    1246, 17.399999600000001, 3, 0  
                    1247, 17.600000399999999, 3, 0  
                    1248, 17.799999199999998, 3, 0  
     LINE  1255     1249, 12.199999800000001, 3, 0  
                    1250, 12.399999599999999, 3, 0  
                    1251, 12.600000400000001, 3, 0  
                    1252, 12.800000199999999, 3, 0  
                    1253, 13, 3, 0  
     LINE  1260     1254, 13.199999800000001, 3, 0  
                    1255, 13.399999599999999, 3, 0  
                    1256, 13.600000400000001, 3, 0  
                    1257, 13.800000199999999, 3, 0  
                    1258, 14, 3, 0  
     LINE  1265     1259, 14.199999800000001, 3, 0  
                    1260, 14.399999599999999, 3, 0  
                    1261, 14.600000400000001, 3, 0  
                    1262, 14.800000199999999, 3, 0  
                    1263, 9.1999998099999996, 3, 0  
     LINE  1270     1264, 9.3999996199999991, 3, 0  
                    1265, 9.6000003800000009, 3, 0  
                    1266, 9.8000001900000004, 3, 0  
                    1267, 10, 3, 0  
                    1268, 10.199999800000001, 3, 0  
     LINE  1275     1269, 10.399999599999999, 3, 0  
                    1270, 10.600000400000001, 3, 0  
                    1271, 10.800000199999999, 3, 0  
                    1272, 11, 3, 0  
                    1273, 11.199999800000001, 3, 0  
     LINE  1280     1274, 11.399999599999999, 3, 0  
                    1275, 11.600000400000001, 3, 0  
                    1276, 11.800000199999999, 3, 0  
                    1277, 6.1999998099999996, 3, 0  
                    1278, 6.4000000999999997, 3, 0  
     LINE  1285     1279, 6.5999999000000003, 3, 0  
                    1280, 6.8000001900000004, 3, 0  
                    1281, 7, 3, 0   
                    1282, 7.1999998099999996, 3, 0  
                    1283, 7.4000000999999997, 3, 0  
     LINE  1290     1284, 7.5999999000000003, 3, 0  
                    1285, 7.8000001900000004, 3, 0  
                    1286, 8, 3, 0   
                    1287, 8.1999998099999996, 3, 0  
                    1288, 8.3999996199999991, 3, 0  
     LINE  1295     1289, 8.6000003800000009, 3, 0  
                    1290, 8.8000001900000004, 3, 0  
                    1291, 3.2000000499999999, 3, 0  
                    1292, 3.4000001000000002, 3, 0  
                    1293, 3.5999998999999998, 3, 0  
     LINE  1300     1294, 3.7999999500000001, 3, 0  
                    1295, 4, 3, 0   
                    1296, 4.1999998099999996, 3, 0  
                    1297, 4.4000000999999997, 3, 0  
                    1298, 4.5999999000000003, 3, 0  
     LINE  1305     1299, 4.8000001900000004, 3, 0  
                    1300, 5, 3, 0   
                    1301, 5.1999998099999996, 3, 0  
                    1302, 5.4000000999999997, 3, 0  
                    1303, 5.5999999000000003, 3, 0  
     LINE  1310     1304, 5.8000001900000004, 3, 0  
                    1305, 18, 26.799999199999998, 0 
                    1306, 18, 26.600000399999999, 0 
                    1307, 18, 26.399999600000001, 0 
                    1308, 18, 26.200000800000002, 0 
     LINE  1315     1309, 18, 26, 0 
                    1310, 18, 25.799999199999998, 0 
                    1311, 18, 25.600000399999999, 0 
                    1312, 18, 25.399999600000001, 0 
                    1313, 18, 25.200000800000002, 0 
     LINE  1320     1314, 18, 25, 0 
                    1315, 18, 24.799999199999998, 0 
                    1316, 18, 24.600000399999999, 0 
                    1317, 18, 24.399999600000001, 0 
                    1318, 18, 24.200000800000002, 0 
     LINE  1325     1319, 21, 26.799999199999998, 0 
                    1320, 21, 26.600000399999999, 0 
                    1321, 21, 26.399999600000001, 0 
                    1322, 21, 26.200000800000002, 0 
                    1323, 21, 26, 0 
     LINE  1330     1324, 21, 25.799999199999998, 0 
                    1325, 21, 25.600000399999999, 0 
                    1326, 21, 25.399999600000001, 0 
                    1327, 21, 25.200000800000002, 0 
                    1328, 21, 25, 0 
     LINE  1335     1329, 21, 24.799999199999998, 0 
                    1330, 21, 24.600000399999999, 0 
                    1331, 21, 24.399999600000001, 0 
                    1332, 21, 24.200000800000002, 0 
                    1333, 27, 23.799999199999998, 0 
     LINE  1340     1334, 27, 23.600000399999999, 0 
                    1335, 27, 23.399999600000001, 0 
                    1336, 27, 23.200000800000002, 0 
                    1337, 27, 23, 0 
                    1338, 27, 22.799999199999998, 0 
     LINE  1345     1339, 27, 22.600000399999999, 0 
                    1340, 27, 22.399999600000001, 0 
                    1341, 27, 22.200000800000002, 0 
                    1342, 27, 22, 0 
                    1343, 27, 21.799999199999998, 0 
     LINE  1350     1344, 27, 21.600000399999999, 0 
                    1345, 27, 21.399999600000001, 0 
                    1346, 27, 21.200000800000002, 0 
                    1347, 24, 23.799999199999998, 0 
                    1348, 24, 23.600000399999999, 0 
     LINE  1355     1349, 24, 23.399999600000001, 0 
                    1350, 24, 23.200000800000002, 0 
                    1351, 24, 23, 0 
                    1352, 24, 22.799999199999998, 0 
                    1353, 24, 22.600000399999999, 0 
     LINE  1360     1354, 24, 22.399999600000001, 0 
                    1355, 24, 22.200000800000002, 0 
                    1356, 24, 22, 0 
                    1357, 24, 21.799999199999998, 0 
                    1358, 24, 21.600000399999999, 0 
     LINE  1365     1359, 24, 21.399999600000001, 0 
                    1360, 24, 21.200000800000002, 0 
                    1361, 21.200000800000002, 24, 0 
                    1362, 21.399999600000001, 24, 0 
                    1363, 21.600000399999999, 24, 0 
     LINE  1370     1364, 21.799999199999998, 24, 0 
                    1365, 22, 24, 0 
                    1366, 22.200000800000002, 24, 0 
                    1367, 22.399999600000001, 24, 0 
                    1368, 22.600000399999999, 24, 0 
     LINE  1375     1369, 22.799999199999998, 24, 0 
                    1370, 23, 24, 0 
                    1371, 23.200000800000002, 24, 0 
                    1372, 23.399999600000001, 24, 0 
                    1373, 23.600000399999999, 24, 0 
     LINE  1380     1374, 23.799999199999998, 24, 0 
                    1375, 15.199999800000001, 24, 0 
                    1376, 15.399999599999999, 24, 0 
                    1377, 15.600000400000001, 24, 0 
                    1378, 15.800000199999999, 24, 0 
     LINE  1385     1379, 16, 24, 0 
                    1380, 16.200000800000002, 24, 0 
                    1381, 16.399999600000001, 24, 0 
                    1382, 16.600000399999999, 24, 0 
                    1383, 16.799999199999998, 24, 0 
     LINE  1390     1384, 17, 24, 0 
                    1385, 17.200000800000002, 24, 0 
                    1386, 17.399999600000001, 24, 0 
                    1387, 17.600000399999999, 24, 0 
                    1388, 17.799999199999998, 24, 0 
     LINE  1395     1389, 12, 23.799999199999998, 0 
                    1390, 12, 23.600000399999999, 0 
                    1391, 12, 23.399999600000001, 0 
                    1392, 12, 23.200000800000002, 0 
                    1393, 12, 23, 0 
     LINE  1400     1394, 12, 22.799999199999998, 0 
                    1395, 12, 22.600000399999999, 0 
                    1396, 12, 22.399999600000001, 0 
                    1397, 12, 22.200000800000002, 0 
                    1398, 12, 22, 0 
     LINE  1405     1399, 12, 21.799999199999998, 0 
                    1400, 12, 21.600000399999999, 0 
                    1401, 12, 21.399999600000001, 0 
                    1402, 12, 21.200000800000002, 0 
                    1403, 9.1999998099999996, 24, 0 
     LINE  1410     1404, 9.3999996199999991, 24, 0 
                    1405, 9.6000003800000009, 24, 0 
                    1406, 9.8000001900000004, 24, 0 
                    1407, 10, 24, 0 
                    1408, 10.199999800000001, 24, 0 
     LINE  1415     1409, 10.399999599999999, 24, 0 
                    1410, 10.600000400000001, 24, 0 
                    1411, 10.800000199999999, 24, 0 
                    1412, 11, 24, 0 
                    1413, 11.199999800000001, 24, 0 
     LINE  1420     1414, 11.399999599999999, 24, 0 
                    1415, 11.600000400000001, 24, 0 
                    1416, 11.800000199999999, 24, 0 
                    1417, 6.1999998099999996, 27, 0 
                    1418, 6.4000000999999997, 27, 0 
     LINE  1425     1419, 6.5999999000000003, 27, 0 
                    1420, 6.8000001900000004, 27, 0 
                    1421, 7, 27, 0  
                    1422, 7.1999998099999996, 27, 0 
                    1423, 7.4000000999999997, 27, 0 
     LINE  1430     1424, 7.5999999000000003, 27, 0 
                    1425, 7.8000001900000004, 27, 0 
                    1426, 8, 27, 0  
                    1427, 8.1999998099999996, 27, 0 
                    1428, 8.3999996199999991, 27, 0 
     LINE  1435     1429, 8.6000003800000009, 27, 0 
                    1430, 8.8000001900000004, 27, 0 
                    1431, 6.1999998099999996, 24, 0 
                    1432, 6.4000000999999997, 24, 0 
                    1433, 6.5999999000000003, 24, 0 
     LINE  1440     1434, 6.8000001900000004, 24, 0 
                    1435, 7, 24, 0  
                    1436, 7.1999998099999996, 24, 0 
                    1437, 7.4000000999999997, 24, 0 
                    1438, 7.5999999000000003, 24, 0 
     LINE  1445     1439, 7.8000001900000004, 24, 0 
                    1440, 8, 24, 0  
                    1441, 8.1999998099999996, 24, 0 
                    1442, 8.3999996199999991, 24, 0 
                    1443, 8.6000003800000009, 24, 0 
     LINE  1450     1444, 8.8000001900000004, 24, 0 
                    1445, 6, 26.799999199999998, 0  
                    1446, 6, 26.600000399999999, 0  
                    1447, 6, 26.399999600000001, 0  
                    1448, 6, 26.200000800000002, 0  
     LINE  1455     1449, 6, 26, 0  
                    1450, 6, 25.799999199999998, 0  
                    1451, 6, 25.600000399999999, 0  
                    1452, 6, 25.399999600000001, 0  
                    1453, 6, 25.200000800000002, 0  
     LINE  1460     1454, 6, 25, 0  
                    1455, 6, 24.799999199999998, 0  
                    1456, 6, 24.600000399999999, 0  
                    1457, 6, 24.399999600000001, 0  
                    1458, 6, 24.200000800000002, 0  
     LINE  1465     1459, 3.2000000499999999, 27, 0 
                    1460, 3.4000001000000002, 27, 0 
                    1461, 3.5999998999999998, 27, 0 
                    1462, 3.7999999500000001, 27, 0 
                    1463, 4, 27, 0  
     LINE  1470     1464, 4.1999998099999996, 27, 0 
                    1465, 4.4000000999999997, 27, 0 
                    1466, 4.5999999000000003, 27, 0 
                    1467, 4.8000001900000004, 27, 0 
                    1468, 5, 27, 0  
     LINE  1475     1469, 5.1999998099999996, 27, 0 
                    1470, 5.4000000999999997, 27, 0 
                    1471, 5.5999999000000003, 27, 0 
                    1472, 5.8000001900000004, 27, 0 
                    1473, 3, 26.799999199999998, 0  
     LINE  1480     1474, 3, 26.600000399999999, 0  
                    1475, 3, 26.399999600000001, 0  
                    1476, 3, 26.200000800000002, 0  
                    1477, 3, 26, 0  
                    1478, 3, 25.799999199999998, 0  
     LINE  1485     1479, 3, 25.600000399999999, 0  
                    1480, 3, 25.399999600000001, 0  
                    1481, 3, 25.200000800000002, 0  
                    1482, 3, 25, 0  
                    1483, 3, 24.799999199999998, 0  
     LINE  1490     1484, 3, 24.600000399999999, 0  
                    1485, 3, 24.399999600000001, 0  
                    1486, 3, 24.200000800000002, 0  
                    1487, 3, 23.799999199999998, 0  
                    1488, 3, 23.600000399999999, 0  
     LINE  1495     1489, 3, 23.399999600000001, 0  
                    1490, 3, 23.200000800000002, 0  
                    1491, 3, 23, 0  
                    1492, 3, 22.799999199999998, 0  
                    1493, 3, 22.600000399999999, 0  
     LINE  1500     1494, 3, 22.399999600000001, 0  
                    1495, 3, 22.200000800000002, 0  
                    1496, 3, 22, 0  
                    1497, 3, 21.799999199999998, 0  
                    1498, 3, 21.600000399999999, 0  
     LINE  1505     1499, 3, 21.399999600000001, 0  
                    1500, 3, 21.200000800000002, 0  
                    1501, 3, 20.799999199999998, 0  
                    1502, 3, 20.600000399999999, 0  
                    1503, 3, 20.399999600000001, 0  
     LINE  1510     1504, 3, 20.200000800000002, 0  
                    1505, 3, 20, 0  
                    1506, 3, 19.799999199999998, 0  
                    1507, 3, 19.600000399999999, 0  
                    1508, 3, 19.399999600000001, 0  
     LINE  1515     1509, 3, 19.200000800000002, 0  
                    1510, 3, 19, 0  
                    1511, 3, 18.799999199999998, 0  
                    1512, 3, 18.600000399999999, 0  
                    1513, 3, 18.399999600000001, 0  
     LINE  1520     1514, 3, 18.200000800000002, 0  
                    1515, 3, 17.799999199999998, 0  
                    1516, 3, 17.600000399999999, 0  
                    1517, 3, 17.399999600000001, 0  
                    1518, 3, 17.200000800000002, 0  
     LINE  1525     1519, 3, 17, 0  
                    1520, 3, 16.799999199999998, 0  
                    1521, 3, 16.600000399999999, 0  
                    1522, 3, 16.399999600000001, 0  
                    1523, 3, 16.200000800000002, 0  
     LINE  1530     1524, 3, 16, 0  
                    1525, 3, 15.800000199999999, 0  
                    1526, 3, 15.600000400000001, 0  
                    1527, 3, 15.399999599999999, 0  
                    1528, 3, 15.199999800000001, 0  
     LINE  1535     1529, 6.1999998099999996, 21, 0 
                    1530, 6.4000000999999997, 21, 0 
                    1531, 6.5999999000000003, 21, 0 
                    1532, 6.8000001900000004, 21, 0 
                    1533, 7, 21, 0  
     LINE  1540     1534, 7.1999998099999996, 21, 0 
                    1535, 7.4000000999999997, 21, 0 
[...]
  PART-1-1                                         2417       2417      
  PART-1-1                                         2418       2418      
  PART-1-1                                         2419       2419      
  PART-1-1                                         2420       2420      
  PART-1-1                                         2421       2421      
  PART-1-1                                         2422       2422      
  PART-1-1                                         2423       2423      
  PART-1-1                                         2424       2424      
  PART-1-1                                         2425       2425      
  PART-1-1                                         2426       2426      
  PART-1-1                                         2427       2427      
  PART-1-1                                         2428       2428      
  PART-1-1                                         2429       2429      
  PART-1-1                                         2430       2430      
  PART-1-1                                         2431       2431      
  PART-1-1                                         2432       2432      
  PART-1-1                                         2433       2433      
  PART-1-1                                         2434       2434      
  PART-1-1                                         2435       2435      
  PART-1-1                                         2436       2436      
  PART-1-1                                         2437       2437      
  PART-1-1                                         2438       2438      
  PART-1-1                                         2439       2439      
  PART-1-1                                         2440       2440      
  PART-1-1                                         2441       2441      
  PART-1-1                                         2442       2442      
  PART-1-1                                         2443       2443      
  PART-1-1                                         2444       2444      
  PART-1-1                                         2445       2445      
  PART-1-1                                         2446       2446      
  PART-1-1                                         2447       2447      
  PART-1-1                                         2448       2448      
  PART-1-1                                         2449       2449      
  PART-1-1                                         2450       2450      
  PART-1-1                                         2451       2451      
  PART-1-1                                         2452       2452      
  PART-1-1                                         2453       2453      
  PART-1-1                                         2454       2454      
  PART-1-1                                         2455       2455      
  PART-1-1                                         2456       2456      
  PART-1-1                                         2457       2457      
  PART-1-1                                         2458       2458      
  PART-1-1                                         2459       2459      
  PART-1-1                                         2460       2460      
  PART-1-1                                         2461       2461      
  PART-1-1                                         2462       2462      
  PART-1-1                                         2463       2463      
  PART-1-1                                         2464       2464      
  PART-1-1                                         2465       2465      
  PART-1-1                                         2466       2466      
  PART-1-1                                         2467       2467      
  PART-1-1                                         2468       2468      
  PART-1-1                                         2469       2469      
  PART-1-1                                         2470       2470      
  PART-1-1                                         2471       2471      
  PART-1-1                                         2472       2472      
  PART-1-1                                         2473       2473      
  PART-1-1                                         2474       2474      
  PART-1-1                                         2475       2475      
  PART-1-1                                         2476       2476      
  PART-1-1                                         2477       2477      
  PART-1-1                                         2478       2478      
  PART-1-1                                         2479       2479      
  PART-1-1                                         2480       2480      
  PART-1-1                                         2481       2481      
  PART-1-1                                         2482       2482      
  PART-1-1                                         2483       2483      
  PART-1-1                                         2484       2484      
  PART-1-1                                         2485       2485      
  PART-1-1                                         2486       2486      
  PART-1-1                                         2487       2487      
  PART-1-1                                         2488       2488      
  PART-1-1                                         2489       2489      
  PART-1-1                                         2490       2490      
  PART-1-1                                         2491       2491      
  PART-1-1                                         2492       2492      
  PART-1-1                                         2493       2493      
  PART-1-1                                         2494       2494      
  PART-1-1                                         2495       2495      
  PART-1-1                                         2496       2496      
  PART-1-1                                         2497       2497      
  PART-1-1                                         2498       2498      
  PART-1-1                                         2499       2499      
  PART-1-1                                         2500       2500      
  PART-1-1                                         2501       2501      
  PART-1-1                                         2502       2502      
  PART-1-1                                         2503       2503      
  PART-1-1                                         2504       2504      
  PART-1-1                                         2505       2505      
  PART-1-1                                         2506       2506      
  PART-1-1                                         2507       2507      
  PART-1-1                                         2508       2508      
  PART-1-1                                         2509       2509      
  PART-1-1                                         2510       2510      
  PART-1-1                                         2511       2511      
  PART-1-1                                         2512       2512      
  PART-1-1                                         2513       2513      
  PART-1-1                                         2514       2514      
  PART-1-1                                         2515       2515      
  PART-1-1                                         2516       2516      
  PART-1-1                                         2517       2517      
  PART-1-1                                         2518       2518      
  PART-1-1                                         2519       2519      
  PART-1-1                                         2520       2520      
  PART-1-1                                         2521       2521      
  PART-1-1                                         2522       2522      
  PART-1-1                                         2523       2523      
  PART-1-1                                         2524       2524      
  PART-1-1                                         2525       2525      
  PART-1-1                                         2526       2526      
  PART-1-1                                         2527       2527      
  PART-1-1                                         2528       2528      
  PART-1-1                                         2529       2529      
  PART-1-1                                         2530       2530      
  PART-1-1                                         2531       2531      
  PART-1-1                                         2532       2532      
  PART-1-1                                         2533       2533      
  PART-1-1                                         2534       2534      
  PART-1-1                                         2535       2535      
  PART-1-1                                         2536       2536      
  PART-1-1                                         2537       2537      
  PART-1-1                                         2538       2538      
  PART-1-1                                         2539       2539      
  PART-1-1                                         2540       2540      
  PART-1-1                                         2541       2541      
  PART-1-1                                         2542       2542      
  PART-1-1                                         2543       2543      
  PART-1-1                                         2544       2544      
  PART-1-1                                         2545       2545      
  PART-1-1                                         2546       2546      
  PART-1-1                                         2547       2547      
  PART-1-1                                         2548       2548      
  PART-1-1                                         2549       2549      
  PART-1-1                                         2550       2550      
  PART-1-1                                         2551       2551      
  PART-1-1                                         2552       2552      
  PART-1-1                                         2553       2553      
  PART-1-1                                         2554       2554      
  PART-1-1                                         2555       2555      
  PART-1-1                                         2556       2556      
  PART-1-1                                         2557       2557      
  PART-1-1                                         2558       2558      
  PART-1-1                                         2559       2559      
  PART-1-1                                         2560       2560      
  PART-1-1                                         2561       2561      
  PART-1-1                                         2562       2562      
  PART-1-1                                         2563       2563      
  PART-1-1                                         2564       2564      
  PART-1-1                                         2565       2565      




                            P R O B L E M   S I Z E


          NUMBER OF ELEMENTS IS                                  2565
          NUMBER OF NODES IS                                     7624
          NUMBER OF NODES DEFINED BY THE USER                    2494
          NUMBER OF INTERNAL NODES GENERATED BY THE PROGRAM      5130
          TOTAL NUMBER OF VARIABLES IN THE MODEL                 7482
          (DEGREES OF FREEDOM PLUS MAX NO. OF ANY LAGRANGE MULTIPLIER
           VARIABLES. INCLUDE *PRINT,SOLVE=YES TO GET THE ACTUAL NUMBER.)



                              END OF USER INPUT PROCESSING



     JOB TIME SUMMARY
       USER TIME (SEC)      =  0.20000    
       SYSTEM TIME (SEC)    =  0.40000    
       TOTAL CPU TIME (SEC) =  0.60000    
       WALLCLOCK TIME (SEC) =          1
1

   Abaqus 2021                                  Date 27-3į┬-2026   Time 13:41:05
   For use by Supplied by Team-SolidSQUAD under license from Dassault Systemes or its subsidiary.

                                                                                               STEP    1  INCREMENT    1
                                                                                          TIME COMPLETED IN THIS STEP   0.00    


                        S T E P       1     S T A T I C   A N A L Y S I S


                                                                                          

     AUTOMATIC TIME CONTROL WITH -
          A SUGGESTED INITIAL TIME INCREMENT OF                 1.00    
          AND A TOTAL TIME PERIOD OF                            1.00    
          THE MINIMUM TIME INCREMENT ALLOWED IS                1.000E-05
          THE MAXIMUM TIME INCREMENT ALLOWED IS                 1.00    

     LINEAR EQUATION SOLVER TYPE         DIRECT SPARSE
  
                   M E M O R Y   E S T I M A T E
  
 PROCESS      FLOATING PT       MINIMUM MEMORY        MEMORY TO
              OPERATIONS           REQUIRED          MINIMIZE I/O
             PER ITERATION           (MB)               (MB)
  
     1          6.56E+05               21                 30
  
 NOTE:
      (1) SINCE ABAQUS DOES NOT PRE-ALLOCATE MEMORY AND ONLY ALLOCATES MEMORY AS NEEDED DURING THE ANALYSIS,
          THE MEMORY REQUIREMENT PRINTED HERE CAN ONLY BE VIEWED AS A GENERAL GUIDELINE BASED ON THE BEST
          KNOWLEDGE AVAILABLE AT THE BEGINNING OF A STEP BEFORE THE SOLUTION PROCESS HAS BEGUN.
      (2) THE ESTIMATE IS NORMALLY UPDATED AT THE BEGINNING OF EVERY STEP. IT IS THE MAXIMUM VALUE OF THE
          ESTIMATE FROM THE CURRENT STEP TO THE LAST STEP OF THE ANALYSIS, WITH UNSYMMETRIC SOLUTION TAKEN
          INTO ACCOUNT IF APPLICABLE. 
      (3) SINCE THE ESTIMATE IS BASED ON THE ACTIVE DEGREES OF FREEDOM IN THE FIRST ITERATION OF THE 
          CURRENT STEP, THE MEMORY ESTIMATE MIGHT BE SIGNIFICANTLY DIFFERENT THAN ACTUAL USAGE FOR 
          PROBLEMS WITH SUBSTANTIAL CHANGES IN ACTIVE DEGREES OF FREEDOM BETWEEN STEPS (OR EVEN WITHIN
          THE SAME STEP). EXAMPLES ARE: PROBLEMS WITH SIGNIFICANT CONTACT CHANGES, PROBLEMS WITH MODEL
          CHANGE, PROBLEMS WITH BOTH STATIC STEP AND STEADY STATE DYNAMIC PROCEDURES WHERE ACOUSTIC 
          ELEMENTS WILL ONLY BE ACTIVATED IN THE STEADY STATE DYNAMIC STEPS.
      (4) FOR MULTI-PROCESS EXECUTION, THE ESTIMATED VALUE OF FLOATING POINT OPERATIONS FOR EACH PROCESS
          IS BASED ON AN INITIAL SCHEDULING OF OPERATIONS AND MIGHT NOT REFLECT THE ACTUAL FLOATING 
          POINT OPERATIONS COMPLETED ON EACH PROCESS. OPERATIONS ARE DYNAMICALLY BALANCED DURING EXECUTION, 
          SO THE ACTUAL BALANCE OF OPERATIONS BETWEEN PROCESSES IS EXPECTED TO BE BETTER THAN THE ESTIMATE
          PRINTED HERE.
      (5) THE UPPER LIMIT OF MEMORY THAT CAN BE ALLOCATED BY ABAQUS WILL IN GENERAL DEPEND ON THE VALUE OF
          THE "MEMORY" PARAMETER AND THE AMOUNT OF PHYSICAL MEMORY AVAILABLE ON THE MACHINE. PLEASE SEE
          THE "ABAQUS ANALYSIS USER'S MANUAL" FOR MORE DETAILS. THE ACTUAL USAGE OF MEMORY AND OF DISK
          SPACE FOR SCRATCH DATA WILL DEPEND ON THIS UPPER LIMIT AS WELL AS THE MEMORY REQUIRED TO MINIMIZE
          I/O. IF THE MEMORY UPPER LIMIT IS GREATER THAN THE MEMORY REQUIRED TO MINIMIZE I/O, THEN THE ACTUAL
          MEMORY USAGE WILL BE CLOSE TO THE ESTIMATED "MEMORY TO MINIMIZE I/O" VALUE, AND THE SCRATCH DISK
          USAGE WILL BE CLOSE-TO-ZERO; OTHERWISE, THE ACTUAL MEMORY USED WILL BE CLOSE TO THE PREVIOUSLY
          MENTIONED MEMORY LIMIT, AND THE SCRATCH DISK USAGE WILL BE ROUGHLY PROPORTIONAL TO THE DIFFERENCE
          BETWEEN THE ESTIMATED "MEMORY TO MINIMIZE I/O" AND THE MEMORY UPPER LIMIT. HOWEVER ACCURATE
          ESTIMATE OF THE SCRATCH DISK SPACE IS NOT POSSIBLE.
      (6) USING "*RESTART, WRITE" CAN GENERATE A LARGE AMOUNT OF DATA WRITTEN IN THE WORK DIRECTORY.
1

   Abaqus 2021                                  Date 27-3į┬-2026   Time 13:41:05
   For use by Supplied by Team-SolidSQUAD under license from Dassault Systemes or its subsidiary.

                                                                                               STEP    2  INCREMENT    1
                                                                                          TIME COMPLETED IN THIS STEP   0.00    
 


                        S T E P       2     M A T R I X   G E N E R A T E
 
  THE FOLLOWING GLOBAL MATRICES WILL BE GENERATED AND WRITTEN TO Job-frame99-7500_X2.sim

    STIFFNESS
    LOAD
 
  IF MULTI-POINT CONSTRAINTS ARE SPECIFIED IN THE MODEL, THEY WILL BE APPLIED
 
  THE FOLLOWING GLOBAL MATRICES WILL BE WRITTEN TO THE FOLLOWING TEXT FILES

    STIFFNESS          TO Job-frame99-7500_STIF2.mtx
    LOAD               TO Job-frame99-7500_LOAD2.mtx
 
  MATRIX OUTPUT FORMAT - MATRIX INPUT
  
                   M E M O R Y   E S T I M A T E
  
 PROCESS      FLOATING PT       MINIMUM MEMORY        MEMORY TO
              OPERATIONS           REQUIRED          MINIMIZE I/O
             PER ITERATION           (MB)               (MB)
  
     1          0.00E+00               21                 21
  
 NOTE:
      (1) SINCE ABAQUS DOES NOT PRE-ALLOCATE MEMORY AND ONLY ALLOCATES MEMORY AS NEEDED DURING THE ANALYSIS,
          THE MEMORY REQUIREMENT PRINTED HERE CAN ONLY BE VIEWED AS A GENERAL GUIDELINE BASED ON THE BEST
          KNOWLEDGE AVAILABLE AT THE BEGINNING OF A STEP BEFORE THE SOLUTION PROCESS HAS BEGUN.
      (2) THE ESTIMATE IS NORMALLY UPDATED AT THE BEGINNING OF EVERY STEP. IT IS THE MAXIMUM VALUE OF THE
          ESTIMATE FROM THE CURRENT STEP TO THE LAST STEP OF THE ANALYSIS, WITH UNSYMMETRIC SOLUTION TAKEN
          INTO ACCOUNT IF APPLICABLE. 
      (3) SINCE THE ESTIMATE IS BASED ON THE ACTIVE DEGREES OF FREEDOM IN THE FIRST ITERATION OF THE 
          CURRENT STEP, THE MEMORY ESTIMATE MIGHT BE SIGNIFICANTLY DIFFERENT THAN ACTUAL USAGE FOR 
          PROBLEMS WITH SUBSTANTIAL CHANGES IN ACTIVE DEGREES OF FREEDOM BETWEEN STEPS (OR EVEN WITHIN
          THE SAME STEP). EXAMPLES ARE: PROBLEMS WITH SIGNIFICANT CONTACT CHANGES, PROBLEMS WITH MODEL
          CHANGE, PROBLEMS WITH BOTH STATIC STEP AND STEADY STATE DYNAMIC PROCEDURES WHERE ACOUSTIC 
          ELEMENTS WILL ONLY BE ACTIVATED IN THE STEADY STATE DYNAMIC STEPS.
      (4) FOR MULTI-PROCESS EXECUTION, THE ESTIMATED VALUE OF FLOATING POINT OPERATIONS FOR EACH PROCESS
          IS BASED ON AN INITIAL SCHEDULING OF OPERATIONS AND MIGHT NOT REFLECT THE ACTUAL FLOATING 
          POINT OPERATIONS COMPLETED ON EACH PROCESS. OPERATIONS ARE DYNAMICALLY BALANCED DURING EXECUTION, 
          SO THE ACTUAL BALANCE OF OPERATIONS BETWEEN PROCESSES IS EXPECTED TO BE BETTER THAN THE ESTIMATE
          PRINTED HERE.
      (5) THE UPPER LIMIT OF MEMORY THAT CAN BE ALLOCATED BY ABAQUS WILL IN GENERAL DEPEND ON THE VALUE OF
          THE "MEMORY" PARAMETER AND THE AMOUNT OF PHYSICAL MEMORY AVAILABLE ON THE MACHINE. PLEASE SEE
          THE "ABAQUS ANALYSIS USER'S MANUAL" FOR MORE DETAILS. THE ACTUAL USAGE OF MEMORY AND OF DISK
          SPACE FOR SCRATCH DATA WILL DEPEND ON THIS UPPER LIMIT AS WELL AS THE MEMORY REQUIRED TO MINIMIZE
          I/O. IF THE MEMORY UPPER LIMIT IS GREATER THAN THE MEMORY REQUIRED TO MINIMIZE I/O, THEN THE ACTUAL
          MEMORY USAGE WILL BE CLOSE TO THE ESTIMATED "MEMORY TO MINIMIZE I/O" VALUE, AND THE SCRATCH DISK
          USAGE WILL BE CLOSE-TO-ZERO; OTHERWISE, THE ACTUAL MEMORY USED WILL BE CLOSE TO THE PREVIOUSLY
          MENTIONED MEMORY LIMIT, AND THE SCRATCH DISK USAGE WILL BE ROUGHLY PROPORTIONAL TO THE DIFFERENCE
          BETWEEN THE ESTIMATED "MEMORY TO MINIMIZE I/O" AND THE MEMORY UPPER LIMIT. HOWEVER ACCURATE
          ESTIMATE OF THE SCRATCH DISK SPACE IS NOT POSSIBLE.
      (6) USING "*RESTART, WRITE" CAN GENERATE A LARGE AMOUNT OF DATA WRITTEN IN THE WORK DIRECTORY.
  


          THE ANALYSIS HAS BEEN COMPLETED



                              ANALYSIS COMPLETE



     JOB TIME SUMMARY
       USER TIME (SEC)      =  0.40000    
       SYSTEM TIME (SEC)    =   0.0000    
       TOTAL CPU TIME (SEC) =  0.40000    
       WALLCLOCK TIME (SEC) =          0
