1

   Abaqus 2021                                  Date 27-3į┬-2026   Time 13:38:42
   For use by Supplied by Team-SolidSQUAD under license from Dassault Systemes or its subsidiary.



                         The Abaqus Software is a product of:

                           Dassault Systemes SIMULIA Corp.
                           1301 Atwood Avenue, Suite 101W
                              Johnston, RI 02919, USA
 


                   The Abaqus Software is available only under license
                   from Dassault Systemes or its subsidiary and may be
                   used or reproduced only in accordance with the terms
                   of such license.
 
                          On machine LAPTOP-PPCQ9D1U 
                          you are authorized to run
                          Abaqus/Standard until 31-Dec-2055

                          Your site id is:  


 
                    For assistance or any other information you may
                    obtain contact information for your local office
                    from the world wide web at:

                      http://www.3ds.com/products/simulia/locations/

 
                * * * * * * * * * * * * * * * * * * * * * * * * * * * * * * 
                *                                                         * 
                *                   *****************                     * 
                *                   *  N O T I C E  *                     * 
                *                   *****************                     * 
                *                                                         * 
                *                                                         * 
                *                       Abaqus 2021                       * 
                *                                                         * 
                *          BUILD ID: 2020_03_06-22.50.37 167380           * 
                *                                                         * 
                *                                                         * 
                *  Please make sure you are using                         * 
                *  release Abaqus 2021 manuals                            * 
                *  plus the notes accompanying this release.              * 
                *                                                         * 
                *                                                         * 
                *                                                         * 
                *                                                         * 
                * * * * * * * * * * * * * * * * * * * * * * * * * * * * * * 


 



     PROCESSING PART, INSTANCE, AND ASSEMBLY INFORMATION
   *******************************************************


     END PROCESSING PART, INSTANCE, AND ASSEMBLY INFORMATION
   ***********************************************************

1

   Abaqus 2021                                  Date 27-3į┬-2026   Time 13:38:42
   For use by Supplied by Team-SolidSQUAD under license from Dassault Systemes or its subsidiary.

                                                                                     

                                             A B A Q U S   I N P U T   E C H O


                    *Heading
                    *preprint, echo=NO, history=NO, model=NO, contact=NO    
                    ** ----------------------------------------------------------------     
                    ** PART INSTANCE: PART-1-1      
     LINE     5     **      
                    *Node   
                    1, 0, 3, 0      
                    2, 0, 6, 0      
                    3, 0, 9, 0      
     LINE    10     4, 3, 9, 0      
                    5, 3, 6, 0      
                    6, 3, 3, 0      
                    7, 0, 0, 0      
                    8, 6, 9, 0      
     LINE    15     9, 6, 6, 0      
                    10, 3, 0, 0     
                    11, 6, 3, 0     
                    12, 9, 9, 0     
                    13, 9, 6, 0     
     LINE    20     14, 9, 3, 0     
                    15, 6, 0, 0     
                    16, 9, 0, 0     
                    17, 0, 3.0199999800000001, 0    
                    18, 0, 3.0399999599999998, 0    
     LINE    25     19, 0, 3.05999994, 0    
                    20, 0, 3.0799999200000001, 0    
                    21, 0, 3.0999998999999998, 0    
                    22, 0, 3.1199998899999999, 0    
                    23, 0, 3.1400001, 0     
     LINE    30     24, 0, 3.16000009, 0    
                    25, 0, 3.1800000700000002, 0    
                    26, 0, 3.2000000499999999, 0    
                    27, 0, 3.22000003, 0    
                    28, 0, 3.2400000100000002, 0    
     LINE    35     29, 0, 3.2599999899999998, 0    
                    30, 0, 3.27999997, 0    
                    31, 0, 3.2999999500000001, 0    
                    32, 0, 3.3199999299999998, 0    
                    33, 0, 3.33999991, 0    
     LINE    40     34, 0, 3.3599999, 0     
                    35, 0, 3.3800001100000001, 0    
                    36, 0, 3.4000001000000002, 0    
                    37, 0, 3.4200000799999999, 0    
                    38, 0, 3.44000006, 0    
     LINE    45     39, 0, 3.4600000400000002, 0    
                    40, 0, 3.4800000199999999, 0    
                    41, 0, 3.5, 0   
                    42, 0, 3.5199999800000001, 0    
                    43, 0, 3.5399999599999998, 0    
     LINE    50     44, 0, 3.55999994, 0    
                    45, 0, 3.5799999200000001, 0    
                    46, 0, 3.5999998999999998, 0    
                    47, 0, 3.6199998899999999, 0    
                    48, 0, 3.6400001, 0     
     LINE    55     49, 0, 3.66000009, 0    
                    50, 0, 3.6800000700000002, 0    
                    51, 0, 3.7000000499999999, 0    
                    52, 0, 3.72000003, 0    
                    53, 0, 3.7400000100000002, 0    
     LINE    60     54, 0, 3.7599999899999998, 0    
                    55, 0, 3.77999997, 0    
                    56, 0, 3.7999999500000001, 0    
                    57, 0, 3.8199999299999998, 0    
                    58, 0, 3.83999991, 0    
     LINE    65     59, 0, 3.8599999, 0     
                    60, 0, 3.8800001100000001, 0    
                    61, 0, 3.9000001000000002, 0    
                    62, 0, 3.9200000799999999, 0    
                    63, 0, 3.94000006, 0    
     LINE    70     64, 0, 3.9600000400000002, 0    
                    65, 0, 3.9800000199999999, 0    
                    66, 0, 4, 0     
                    67, 0, 4.0199999799999997, 0    
                    68, 0, 4.0399999600000003, 0    
     LINE    75     69, 0, 4.05999994, 0    
                    70, 0, 4.0799999199999997, 0    
                    71, 0, 4.0999999000000003, 0    
                    72, 0, 4.1199998899999999, 0    
                    73, 0, 4.1399998699999996, 0    
     LINE    80     74, 0, 4.1599998500000002, 0    
                    75, 0, 4.1799998299999999, 0    
                    76, 0, 4.1999998099999996, 0    
                    77, 0, 4.2199997900000001, 0    
                    78, 0, 4.2399997699999998, 0    
     LINE    85     79, 0, 4.2600002300000002, 0    
                    80, 0, 4.2800002099999999, 0    
                    81, 0, 4.3000001900000004, 0    
                    82, 0, 4.3200001700000001, 0    
                    83, 0, 4.3400001499999998, 0    
     LINE    90     84, 0, 4.3600001300000004, 0    
                    85, 0, 4.3800001100000001, 0    
                    86, 0, 4.4000000999999997, 0    
                    87, 0, 4.4200000800000003, 0    
                    88, 0, 4.44000006, 0    
     LINE    95     89, 0, 4.4600000399999997, 0    
                    90, 0, 4.4800000200000003, 0    
                    91, 0, 4.5, 0   
                    92, 0, 4.5199999799999997, 0    
                    93, 0, 4.5399999600000003, 0    
     LINE   100     94, 0, 4.55999994, 0    
                    95, 0, 4.5799999199999997, 0    
                    96, 0, 4.5999999000000003, 0    
                    97, 0, 4.6199998899999999, 0    
                    98, 0, 4.6399998699999996, 0    
     LINE   105     99, 0, 4.6599998500000002, 0    
                    100, 0, 4.6799998299999999, 0   
                    101, 0, 4.6999998099999996, 0   
                    102, 0, 4.7199997900000001, 0   
                    103, 0, 4.7399997699999998, 0   
     LINE   110     104, 0, 4.7600002300000002, 0   
                    105, 0, 4.7800002099999999, 0   
                    106, 0, 4.8000001900000004, 0   
                    107, 0, 4.8200001700000001, 0   
                    108, 0, 4.8400001499999998, 0   
     LINE   115     109, 0, 4.8600001300000004, 0   
                    110, 0, 4.8800001100000001, 0   
                    111, 0, 4.9000000999999997, 0   
                    112, 0, 4.9200000800000003, 0   
                    113, 0, 4.94000006, 0   
     LINE   120     114, 0, 4.9600000399999997, 0   
                    115, 0, 4.9800000200000003, 0   
                    116, 0, 5, 0    
                    117, 0, 5.0199999799999997, 0   
                    118, 0, 5.0399999600000003, 0   
     LINE   125     119, 0, 5.05999994, 0   
                    120, 0, 5.0799999199999997, 0   
                    121, 0, 5.0999999000000003, 0   
                    122, 0, 5.1199998899999999, 0   
                    123, 0, 5.1399998699999996, 0   
     LINE   130     124, 0, 5.1599998500000002, 0   
                    125, 0, 5.1799998299999999, 0   
                    126, 0, 5.1999998099999996, 0   
                    127, 0, 5.2199997900000001, 0   
                    128, 0, 5.2399997699999998, 0   
     LINE   135     129, 0, 5.2600002300000002, 0   
                    130, 0, 5.2800002099999999, 0   
                    131, 0, 5.3000001900000004, 0   
                    132, 0, 5.3200001700000001, 0   
                    133, 0, 5.3400001499999998, 0   
     LINE   140     134, 0, 5.3600001300000004, 0   
                    135, 0, 5.3800001100000001, 0   
                    136, 0, 5.4000000999999997, 0   
                    137, 0, 5.4200000800000003, 0   
                    138, 0, 5.44000006, 0   
     LINE   145     139, 0, 5.4600000399999997, 0   
                    140, 0, 5.4800000200000003, 0   
                    141, 0, 5.5, 0  
                    142, 0, 5.5199999799999997, 0   
                    143, 0, 5.5399999600000003, 0   
     LINE   150     144, 0, 5.55999994, 0   
                    145, 0, 5.5799999199999997, 0   
                    146, 0, 5.5999999000000003, 0   
                    147, 0, 5.6199998899999999, 0   
                    148, 0, 5.6399998699999996, 0   
     LINE   155     149, 0, 5.6599998500000002, 0   
                    150, 0, 5.6799998299999999, 0   
                    151, 0, 5.6999998099999996, 0   
                    152, 0, 5.7199997900000001, 0   
                    153, 0, 5.7399997699999998, 0   
     LINE   160     154, 0, 5.7600002300000002, 0   
                    155, 0, 5.7800002099999999, 0   
                    156, 0, 5.8000001900000004, 0   
                    157, 0, 5.8200001700000001, 0   
                    158, 0, 5.8400001499999998, 0   
     LINE   165     159, 0, 5.8600001300000004, 0   
                    160, 0, 5.8800001100000001, 0   
                    161, 0, 5.9000000999999997, 0   
                    162, 0, 5.9200000800000003, 0   
                    163, 0, 5.94000006, 0   
     LINE   170     164, 0, 5.9600000399999997, 0   
                    165, 0, 5.9800000200000003, 0   
                    166, 0, 6.0199999799999997, 0   
                    167, 0, 6.0399999600000003, 0   
                    168, 0, 6.05999994, 0   
     LINE   175     169, 0, 6.0799999199999997, 0   
                    170, 0, 6.0999999000000003, 0   
                    171, 0, 6.1199998899999999, 0   
                    172, 0, 6.1399998699999996, 0   
                    173, 0, 6.1599998500000002, 0   
     LINE   180     174, 0, 6.1799998299999999, 0   
                    175, 0, 6.1999998099999996, 0   
                    176, 0, 6.2199997900000001, 0   
                    177, 0, 6.2399997699999998, 0   
                    178, 0, 6.2600002300000002, 0   
     LINE   185     179, 0, 6.2800002099999999, 0   
                    180, 0, 6.3000001900000004, 0   
                    181, 0, 6.3200001700000001, 0   
                    182, 0, 6.3400001499999998, 0   
                    183, 0, 6.3600001300000004, 0   
     LINE   190     184, 0, 6.3800001100000001, 0   
                    185, 0, 6.4000000999999997, 0   
                    186, 0, 6.4200000800000003, 0   
                    187, 0, 6.44000006, 0   
                    188, 0, 6.4600000399999997, 0   
     LINE   195     189, 0, 6.4800000200000003, 0   
                    190, 0, 6.5, 0  
                    191, 0, 6.5199999799999997, 0   
                    192, 0, 6.5399999600000003, 0   
                    193, 0, 6.55999994, 0   
     LINE   200     194, 0, 6.5799999199999997, 0   
                    195, 0, 6.5999999000000003, 0   
                    196, 0, 6.6199998899999999, 0   
                    197, 0, 6.6399998699999996, 0   
                    198, 0, 6.6599998500000002, 0   
     LINE   205     199, 0, 6.6799998299999999, 0   
                    200, 0, 6.6999998099999996, 0   
                    201, 0, 6.7199997900000001, 0   
                    202, 0, 6.7399997699999998, 0   
                    203, 0, 6.7600002300000002, 0   
     LINE   210     204, 0, 6.7800002099999999, 0   
                    205, 0, 6.8000001900000004, 0   
                    206, 0, 6.8200001700000001, 0   
                    207, 0, 6.8400001499999998, 0   
                    208, 0, 6.8600001300000004, 0   
     LINE   215     209, 0, 6.8800001100000001, 0   
                    210, 0, 6.9000000999999997, 0   
                    211, 0, 6.9200000800000003, 0   
                    212, 0, 6.94000006, 0   
                    213, 0, 6.9600000399999997, 0   
     LINE   220     214, 0, 6.9800000200000003, 0   
                    215, 0, 7, 0    
                    216, 0, 7.0199999799999997, 0   
                    217, 0, 7.0399999600000003, 0   
                    218, 0, 7.05999994, 0   
     LINE   225     219, 0, 7.0799999199999997, 0   
                    220, 0, 7.0999999000000003, 0   
                    221, 0, 7.1199998899999999, 0   
                    222, 0, 7.1399998699999996, 0   
                    223, 0, 7.1599998500000002, 0   
     LINE   230     224, 0, 7.1799998299999999, 0   
                    225, 0, 7.1999998099999996, 0   
                    226, 0, 7.2199997900000001, 0   
                    227, 0, 7.2399997699999998, 0   
                    228, 0, 7.2600002300000002, 0   
     LINE   235     229, 0, 7.2800002099999999, 0   
                    230, 0, 7.3000001900000004, 0   
                    231, 0, 7.3200001700000001, 0   
                    232, 0, 7.3400001499999998, 0   
                    233, 0, 7.3600001300000004, 0   
     LINE   240     234, 0, 7.3800001100000001, 0   
                    235, 0, 7.4000000999999997, 0   
                    236, 0, 7.4200000800000003, 0   
                    237, 0, 7.44000006, 0   
                    238, 0, 7.4600000399999997, 0   
     LINE   245     239, 0, 7.4800000200000003, 0   
                    240, 0, 7.5, 0  
                    241, 0, 7.5199999799999997, 0   
                    242, 0, 7.5399999600000003, 0   
                    243, 0, 7.55999994, 0   
     LINE   250     244, 0, 7.5799999199999997, 0   
                    245, 0, 7.5999999000000003, 0   
                    246, 0, 7.6199998899999999, 0   
                    247, 0, 7.6399998699999996, 0   
                    248, 0, 7.6599998500000002, 0   
     LINE   255     249, 0, 7.6799998299999999, 0   
                    250, 0, 7.6999998099999996, 0   
                    251, 0, 7.7199997900000001, 0   
                    252, 0, 7.7399997699999998, 0   
                    253, 0, 7.7600002300000002, 0   
     LINE   260     254, 0, 7.7800002099999999, 0   
                    255, 0, 7.8000001900000004, 0   
                    256, 0, 7.8200001700000001, 0   
                    257, 0, 7.8400001499999998, 0   
                    258, 0, 7.8600001300000004, 0   
     LINE   265     259, 0, 7.8800001100000001, 0   
                    260, 0, 7.9000000999999997, 0   
                    261, 0, 7.9200000800000003, 0   
                    262, 0, 7.94000006, 0   
                    263, 0, 7.9600000399999997, 0   
     LINE   270     264, 0, 7.9800000200000003, 0   
                    265, 0, 8, 0    
                    266, 0, 8.0200004600000003, 0   
                    267, 0, 8.0399999599999994, 0   
                    268, 0, 8.0600004199999997, 0   
     LINE   275     269, 0, 8.0799999200000006, 0   
                    270, 0, 8.1000003800000009, 0   
                    271, 0, 8.1199998900000008, 0   
                    272, 0, 8.1400003400000003, 0   
                    273, 0, 8.1599998500000002, 0   
     LINE   280     274, 0, 8.1800003100000005, 0   
                    275, 0, 8.1999998099999996, 0   
                    276, 0, 8.2200002699999999, 0   
                    277, 0, 8.2399997700000007, 0   
                    278, 0, 8.2600002299999993, 0   
     LINE   285     279, 0, 8.2799997300000001, 0   
                    280, 0, 8.3000001900000004, 0   
                    281, 0, 8.3199996899999995, 0   
                    282, 0, 8.3400001499999998, 0   
                    283, 0, 8.3599996599999997, 0   
     LINE   290     284, 0, 8.3800001099999992, 0   
                    285, 0, 8.3999996199999991, 0   
                    286, 0, 8.4200000799999994, 0   
                    287, 0, 8.4399995800000003, 0   
                    288, 0, 8.4600000400000006, 0   
     LINE   295     289, 0, 8.4799995399999997, 0   
                    290, 0, 8.5, 0  
                    291, 0, 8.5200004600000003, 0   
                    292, 0, 8.5399999599999994, 0   
                    293, 0, 8.5600004199999997, 0   
     LINE   300     294, 0, 8.5799999200000006, 0   
                    295, 0, 8.6000003800000009, 0   
                    296, 0, 8.6199998900000008, 0   
                    297, 0, 8.6400003400000003, 0   
                    298, 0, 8.6599998500000002, 0   
     LINE   305     299, 0, 8.6800003100000005, 0   
                    300, 0, 8.6999998099999996, 0   
                    301, 0, 8.7200002699999999, 0   
                    302, 0, 8.7399997700000007, 0   
                    303, 0, 8.7600002299999993, 0   
     LINE   310     304, 0, 8.7799997300000001, 0   
                    305, 0, 8.8000001900000004, 0   
                    306, 0, 8.8199996899999995, 0   
                    307, 0, 8.8400001499999998, 0   
                    308, 0, 8.8599996599999997, 0   
     LINE   315     309, 0, 8.8800001099999992, 0   
                    310, 0, 8.8999996199999991, 0   
                    311, 0, 8.9200000799999994, 0   
                    312, 0, 8.9399995800000003, 0   
                    313, 0, 8.9600000400000006, 0   
     LINE   320     314, 0, 8.9799995399999997, 0   
                    315, 0.019999999599999999, 9, 0 
                    316, 0.039999999100000003, 9, 0 
                    317, 0.059999998700000001, 9, 0 
                    318, 0.079999998200000005, 9, 0 
     LINE   325     319, 0.10000000100000001, 9, 0  
                    320, 0.119999997, 9, 0  
                    321, 0.14000000100000001, 9, 0  
                    322, 0.15999999600000001, 9, 0  
                    323, 0.18000000699999999, 9, 0  
     LINE   330     324, 0.20000000300000001, 9, 0  
                    325, 0.219999999, 9, 0  
                    326, 0.23999999499999999, 9, 0  
                    327, 0.25999999000000001, 9, 0  
                    328, 0.280000001, 9, 0  
     LINE   335     329, 0.30000001199999998, 9, 0  
                    330, 0.31999999299999998, 9, 0  
                    331, 0.34000000400000002, 9, 0  
                    332, 0.36000001399999998, 9, 0  
                    333, 0.37999999499999998, 9, 0  
     LINE   340     334, 0.40000000600000002, 9, 0  
                    335, 0.41999998700000002, 9, 0  
                    336, 0.439999998, 9, 0  
                    337, 0.46000000800000002, 9, 0  
                    338, 0.47999998900000002, 9, 0  
     LINE   345     339, 0.5, 9, 0  
                    340, 0.519999981, 9, 0  
                    341, 0.540000021, 9, 0  
                    342, 0.560000002, 9, 0  
                    343, 0.579999983, 9, 0  
     LINE   350     344, 0.60000002399999997, 9, 0  
                    345, 0.62000000499999997, 9, 0  
                    346, 0.63999998599999997, 9, 0  
                    347, 0.66000002599999996, 9, 0  
                    348, 0.68000000699999996, 9, 0  
     LINE   355     349, 0.69999998799999996, 9, 0  
                    350, 0.72000002900000004, 9, 0  
                    351, 0.74000001000000004, 9, 0  
                    352, 0.75999998999999996, 9, 0  
                    353, 0.77999997099999996, 9, 0  
     LINE   360     354, 0.80000001200000004, 9, 0  
                    355, 0.81999999300000004, 9, 0  
                    356, 0.83999997400000004, 9, 0  
                    357, 0.86000001400000003, 9, 0  
                    358, 0.87999999500000003, 9, 0  
     LINE   365     359, 0.89999997600000003, 9, 0  
                    360, 0.920000017, 9, 0  
                    361, 0.939999998, 9, 0  
                    362, 0.959999979, 9, 0  
                    363, 0.980000019, 9, 0  
     LINE   370     364, 1, 9, 0    
                    365, 1.0199999799999999, 9, 0   
                    366, 1.0399999600000001, 9, 0   
                    367, 1.05999994, 9, 0   
                    368, 1.0800000400000001, 9, 0   
     LINE   375     369, 1.10000002, 9, 0   
                    370, 1.1200000000000001, 9, 0   
                    371, 1.13999999, 9, 0   
                    372, 1.1599999700000001, 9, 0   
                    373, 1.17999995, 9, 0   
     LINE   380     374, 1.2000000500000001, 9, 0   
                    375, 1.22000003, 9, 0   
                    376, 1.2400000099999999, 9, 0   
                    377, 1.2599999900000001, 9, 0   
                    378, 1.27999997, 9, 0   
     LINE   385     379, 1.2999999499999999, 9, 0   
                    380, 1.32000005, 9, 0   
                    381, 1.3400000299999999, 9, 0   
                    382, 1.36000001, 9, 0   
                    383, 1.3799999999999999, 9, 0   
     LINE   390     384, 1.39999998, 9, 0   
                    385, 1.4199999599999999, 9, 0   
                    386, 1.44000006, 9, 0   
                    387, 1.4600000399999999, 9, 0   
                    388, 1.4800000200000001, 9, 0   
     LINE   395     389, 1.5, 9, 0  
                    390, 1.5199999799999999, 9, 0   
                    391, 1.5399999600000001, 9, 0   
                    392, 1.55999994, 9, 0   
                    393, 1.5800000400000001, 9, 0   
     LINE   400     394, 1.60000002, 9, 0   
                    395, 1.6200000000000001, 9, 0   
                    396, 1.63999999, 9, 0   
                    397, 1.6599999700000001, 9, 0   
                    398, 1.67999995, 9, 0   
     LINE   405     399, 1.7000000500000001, 9, 0   
                    400, 1.72000003, 9, 0   
                    401, 1.7400000099999999, 9, 0   
                    402, 1.7599999900000001, 9, 0   
                    403, 1.77999997, 9, 0   
     LINE   410     404, 1.7999999499999999, 9, 0   
                    405, 1.82000005, 9, 0   
                    406, 1.8400000299999999, 9, 0   
                    407, 1.86000001, 9, 0   
                    408, 1.8799999999999999, 9, 0   
     LINE   415     409, 1.89999998, 9, 0   
                    410, 1.9199999599999999, 9, 0   
                    411, 1.94000006, 9, 0   
                    412, 1.9600000399999999, 9, 0   
                    413, 1.9800000200000001, 9, 0   
     LINE   420     414, 2, 9, 0    
                    415, 2.0199999800000001, 9, 0   
                    416, 2.0399999599999998, 9, 0   
                    417, 2.05999994, 9, 0   
                    418, 2.0799999200000001, 9, 0   
     LINE   425     419, 2.0999998999999998, 9, 0   
                    420, 2.1199998899999999, 9, 0   
                    421, 2.1400001, 9, 0    
                    422, 2.16000009, 9, 0   
                    423, 2.1800000700000002, 9, 0   
     LINE   430     424, 2.2000000499999999, 9, 0   
                    425, 2.22000003, 9, 0   
                    426, 2.2400000100000002, 9, 0   
                    427, 2.2599999899999998, 9, 0   
                    428, 2.27999997, 9, 0   
     LINE   435     429, 2.2999999500000001, 9, 0   
                    430, 2.3199999299999998, 9, 0   
                    431, 2.33999991, 9, 0   
                    432, 2.3599999, 9, 0    
                    433, 2.3800001100000001, 9, 0   
     LINE   440     434, 2.4000001000000002, 9, 0   
                    435, 2.4200000799999999, 9, 0   
                    436, 2.44000006, 9, 0   
                    437, 2.4600000400000002, 9, 0   
                    438, 2.4800000199999999, 9, 0   
     LINE   445     439, 2.5, 9, 0  
                    440, 2.5199999800000001, 9, 0   
                    441, 2.5399999599999998, 9, 0   
                    442, 2.55999994, 9, 0   
                    443, 2.5799999200000001, 9, 0   
     LINE   450     444, 2.5999998999999998, 9, 0   
                    445, 2.6199998899999999, 9, 0   
                    446, 2.6400001, 9, 0    
                    447, 2.66000009, 9, 0   
                    448, 2.6800000700000002, 9, 0   
     LINE   455     449, 2.7000000499999999, 9, 0   
                    450, 2.72000003, 9, 0   
                    451, 2.7400000100000002, 9, 0   
                    452, 2.7599999899999998, 9, 0   
                    453, 2.77999997, 9, 0   
     LINE   460     454, 2.7999999500000001, 9, 0   
                    455, 2.8199999299999998, 9, 0   
                    456, 2.83999991, 9, 0   
                    457, 2.8599999, 9, 0    
                    458, 2.8800001100000001, 9, 0   
     LINE   465     459, 2.9000001000000002, 9, 0   
                    460, 2.9200000799999999, 9, 0   
                    461, 2.94000006, 9, 0   
                    462, 2.9600000400000002, 9, 0   
                    463, 2.9800000199999999, 9, 0   
     LINE   470     464, 3, 8.9799995399999997, 0   
                    465, 3, 8.9600000400000006, 0   
                    466, 3, 8.9399995800000003, 0   
                    467, 3, 8.9200000799999994, 0   
                    468, 3, 8.8999996199999991, 0   
     LINE   475     469, 3, 8.8800001099999992, 0   
                    470, 3, 8.8599996599999997, 0   
                    471, 3, 8.8400001499999998, 0   
                    472, 3, 8.8199996899999995, 0   
                    473, 3, 8.8000001900000004, 0   
     LINE   480     474, 3, 8.7799997300000001, 0   
                    475, 3, 8.7600002299999993, 0   
                    476, 3, 8.7399997700000007, 0   
                    477, 3, 8.7200002699999999, 0   
                    478, 3, 8.6999998099999996, 0   
     LINE   485     479, 3, 8.6800003100000005, 0   
                    480, 3, 8.6599998500000002, 0   
                    481, 3, 8.6400003400000003, 0   
                    482, 3, 8.6199998900000008, 0   
                    483, 3, 8.6000003800000009, 0   
     LINE   490     484, 3, 8.5799999200000006, 0   
                    485, 3, 8.5600004199999997, 0   
                    486, 3, 8.5399999599999994, 0   
                    487, 3, 8.5200004600000003, 0   
                    488, 3, 8.5, 0  
     LINE   495     489, 3, 8.4799995399999997, 0   
                    490, 3, 8.4600000400000006, 0   
                    491, 3, 8.4399995800000003, 0   
                    492, 3, 8.4200000799999994, 0   
                    493, 3, 8.3999996199999991, 0   
     LINE   500     494, 3, 8.3800001099999992, 0   
                    495, 3, 8.3599996599999997, 0   
                    496, 3, 8.3400001499999998, 0   
                    497, 3, 8.3199996899999995, 0   
                    498, 3, 8.3000001900000004, 0   
     LINE   505     499, 3, 8.2799997300000001, 0   
                    500, 3, 8.2600002299999993, 0   
                    501, 3, 8.2399997700000007, 0   
                    502, 3, 8.2200002699999999, 0   
                    503, 3, 8.1999998099999996, 0   
     LINE   510     504, 3, 8.1800003100000005, 0   
                    505, 3, 8.1599998500000002, 0   
                    506, 3, 8.1400003400000003, 0   
                    507, 3, 8.1199998900000008, 0   
                    508, 3, 8.1000003800000009, 0   
     LINE   515     509, 3, 8.0799999200000006, 0   
                    510, 3, 8.0600004199999997, 0   
                    511, 3, 8.0399999599999994, 0   
                    512, 3, 8.0200004600000003, 0   
                    513, 3, 8, 0    
     LINE   520     514, 3, 7.9800000200000003, 0   
                    515, 3, 7.9600000399999997, 0   
                    516, 3, 7.94000006, 0   
                    517, 3, 7.9200000800000003, 0   
                    518, 3, 7.9000000999999997, 0   
     LINE   525     519, 3, 7.8800001100000001, 0   
                    520, 3, 7.8600001300000004, 0   
                    521, 3, 7.8400001499999998, 0   
                    522, 3, 7.8200001700000001, 0   
                    523, 3, 7.8000001900000004, 0   
     LINE   530     524, 3, 7.7800002099999999, 0   
                    525, 3, 7.7600002300000002, 0   
                    526, 3, 7.7399997699999998, 0   
                    527, 3, 7.7199997900000001, 0   
                    528, 3, 7.6999998099999996, 0   
     LINE   535     529, 3, 7.6799998299999999, 0   
                    530, 3, 7.6599998500000002, 0   
                    531, 3, 7.6399998699999996, 0   
                    532, 3, 7.6199998899999999, 0   
                    533, 3, 7.5999999000000003, 0   
     LINE   540     534, 3, 7.5799999199999997, 0   
                    535, 3, 7.55999994, 0   
                    536, 3, 7.5399999600000003, 0   
                    537, 3, 7.5199999799999997, 0   
                    538, 3, 7.5, 0  
     LINE   545     539, 3, 7.4800000200000003, 0   
                    540, 3, 7.4600000399999997, 0   
                    541, 3, 7.44000006, 0   
                    542, 3, 7.4200000800000003, 0   
                    543, 3, 7.4000000999999997, 0   
     LINE   550     544, 3, 7.3800001100000001, 0   
                    545, 3, 7.3600001300000004, 0   
                    546, 3, 7.3400001499999998, 0   
                    547, 3, 7.3200001700000001, 0   
                    548, 3, 7.3000001900000004, 0   
     LINE   555     549, 3, 7.2800002099999999, 0   
                    550, 3, 7.2600002300000002, 0   
                    551, 3, 7.2399997699999998, 0   
                    552, 3, 7.2199997900000001, 0   
                    553, 3, 7.1999998099999996, 0   
     LINE   560     554, 3, 7.1799998299999999, 0   
                    555, 3, 7.1599998500000002, 0   
                    556, 3, 7.1399998699999996, 0   
                    557, 3, 7.1199998899999999, 0   
                    558, 3, 7.0999999000000003, 0   
     LINE   565     559, 3, 7.0799999199999997, 0   
                    560, 3, 7.05999994, 0   
                    561, 3, 7.0399999600000003, 0   
                    562, 3, 7.0199999799999997, 0   
                    563, 3, 7, 0    
     LINE   570     564, 3, 6.9800000200000003, 0   
                    565, 3, 6.9600000399999997, 0   
                    566, 3, 6.94000006, 0   
                    567, 3, 6.9200000800000003, 0   
                    568, 3, 6.9000000999999997, 0   
     LINE   575     569, 3, 6.8800001100000001, 0   
                    570, 3, 6.8600001300000004, 0   
                    571, 3, 6.8400001499999998, 0   
                    572, 3, 6.8200001700000001, 0   
                    573, 3, 6.8000001900000004, 0   
     LINE   580     574, 3, 6.7800002099999999, 0   
                    575, 3, 6.7600002300000002, 0   
                    576, 3, 6.7399997699999998, 0   
                    577, 3, 6.7199997900000001, 0   
                    578, 3, 6.6999998099999996, 0   
     LINE   585     579, 3, 6.6799998299999999, 0   
                    580, 3, 6.6599998500000002, 0   
                    581, 3, 6.6399998699999996, 0   
                    582, 3, 6.6199998899999999, 0   
                    583, 3, 6.5999999000000003, 0   
     LINE   590     584, 3, 6.5799999199999997, 0   
                    585, 3, 6.55999994, 0   
                    586, 3, 6.5399999600000003, 0   
                    587, 3, 6.5199999799999997, 0   
                    588, 3, 6.5, 0  
     LINE   595     589, 3, 6.4800000200000003, 0   
                    590, 3, 6.4600000399999997, 0   
                    591, 3, 6.44000006, 0   
                    592, 3, 6.4200000800000003, 0   
                    593, 3, 6.4000000999999997, 0   
     LINE   600     594, 3, 6.3800001100000001, 0   
                    595, 3, 6.3600001300000004, 0   
                    596, 3, 6.3400001499999998, 0   
                    597, 3, 6.3200001700000001, 0   
                    598, 3, 6.3000001900000004, 0   
     LINE   605     599, 3, 6.2800002099999999, 0   
                    600, 3, 6.2600002300000002, 0   
                    601, 3, 6.2399997699999998, 0   
                    602, 3, 6.2199997900000001, 0   
                    603, 3, 6.1999998099999996, 0   
     LINE   610     604, 3, 6.1799998299999999, 0   
                    605, 3, 6.1599998500000002, 0   
                    606, 3, 6.1399998699999996, 0   
                    607, 3, 6.1199998899999999, 0   
                    608, 3, 6.0999999000000003, 0   
     LINE   615     609, 3, 6.0799999199999997, 0   
                    610, 3, 6.05999994, 0   
                    611, 3, 6.0399999600000003, 0   
                    612, 3, 6.0199999799999997, 0   
                    613, 0.019999999599999999, 6, 0 
     LINE   620     614, 0.039999999100000003, 6, 0 
                    615, 0.059999998700000001, 6, 0 
                    616, 0.079999998200000005, 6, 0 
                    617, 0.10000000100000001, 6, 0  
                    618, 0.119999997, 6, 0  
     LINE   625     619, 0.14000000100000001, 6, 0  
                    620, 0.15999999600000001, 6, 0  
                    621, 0.18000000699999999, 6, 0  
                    622, 0.20000000300000001, 6, 0  
                    623, 0.219999999, 6, 0  
     LINE   630     624, 0.23999999499999999, 6, 0  
                    625, 0.25999999000000001, 6, 0  
                    626, 0.280000001, 6, 0  
                    627, 0.30000001199999998, 6, 0  
                    628, 0.31999999299999998, 6, 0  
     LINE   635     629, 0.34000000400000002, 6, 0  
                    630, 0.36000001399999998, 6, 0  
                    631, 0.37999999499999998, 6, 0  
                    632, 0.40000000600000002, 6, 0  
                    633, 0.41999998700000002, 6, 0  
     LINE   640     634, 0.439999998, 6, 0  
                    635, 0.46000000800000002, 6, 0  
                    636, 0.47999998900000002, 6, 0  
                    637, 0.5, 6, 0  
                    638, 0.519999981, 6, 0  
     LINE   645     639, 0.540000021, 6, 0  
                    640, 0.560000002, 6, 0  
                    641, 0.579999983, 6, 0  
                    642, 0.60000002399999997, 6, 0  
                    643, 0.62000000499999997, 6, 0  
     LINE   650     644, 0.63999998599999997, 6, 0  
                    645, 0.66000002599999996, 6, 0  
                    646, 0.68000000699999996, 6, 0  
                    647, 0.69999998799999996, 6, 0  
                    648, 0.72000002900000004, 6, 0  
     LINE   655     649, 0.74000001000000004, 6, 0  
                    650, 0.75999998999999996, 6, 0  
                    651, 0.77999997099999996, 6, 0  
                    652, 0.80000001200000004, 6, 0  
                    653, 0.81999999300000004, 6, 0  
     LINE   660     654, 0.83999997400000004, 6, 0  
                    655, 0.86000001400000003, 6, 0  
                    656, 0.87999999500000003, 6, 0  
                    657, 0.89999997600000003, 6, 0  
                    658, 0.920000017, 6, 0  
     LINE   665     659, 0.939999998, 6, 0  
                    660, 0.959999979, 6, 0  
                    661, 0.980000019, 6, 0  
                    662, 1, 6, 0    
                    663, 1.0199999799999999, 6, 0   
     LINE   670     664, 1.0399999600000001, 6, 0   
                    665, 1.05999994, 6, 0   
                    666, 1.0800000400000001, 6, 0   
                    667, 1.10000002, 6, 0   
                    668, 1.1200000000000001, 6, 0   
     LINE   675     669, 1.13999999, 6, 0   
                    670, 1.1599999700000001, 6, 0   
                    671, 1.17999995, 6, 0   
                    672, 1.2000000500000001, 6, 0   
                    673, 1.22000003, 6, 0   
     LINE   680     674, 1.2400000099999999, 6, 0   
                    675, 1.2599999900000001, 6, 0   
                    676, 1.27999997, 6, 0   
                    677, 1.2999999499999999, 6, 0   
                    678, 1.32000005, 6, 0   
     LINE   685     679, 1.3400000299999999, 6, 0   
                    680, 1.36000001, 6, 0   
                    681, 1.3799999999999999, 6, 0   
                    682, 1.39999998, 6, 0   
                    683, 1.4199999599999999, 6, 0   
     LINE   690     684, 1.44000006, 6, 0   
                    685, 1.4600000399999999, 6, 0   
                    686, 1.4800000200000001, 6, 0   
                    687, 1.5, 6, 0  
                    688, 1.5199999799999999, 6, 0   
     LINE   695     689, 1.5399999600000001, 6, 0   
                    690, 1.55999994, 6, 0   
                    691, 1.5800000400000001, 6, 0   
                    692, 1.60000002, 6, 0   
                    693, 1.6200000000000001, 6, 0   
     LINE   700     694, 1.63999999, 6, 0   
                    695, 1.6599999700000001, 6, 0   
                    696, 1.67999995, 6, 0   
                    697, 1.7000000500000001, 6, 0   
                    698, 1.72000003, 6, 0   
     LINE   705     699, 1.7400000099999999, 6, 0   
                    700, 1.7599999900000001, 6, 0   
                    701, 1.77999997, 6, 0   
                    702, 1.7999999499999999, 6, 0   
                    703, 1.82000005, 6, 0   
     LINE   710     704, 1.8400000299999999, 6, 0   
                    705, 1.86000001, 6, 0   
                    706, 1.8799999999999999, 6, 0   
                    707, 1.89999998, 6, 0   
                    708, 1.9199999599999999, 6, 0   
     LINE   715     709, 1.94000006, 6, 0   
                    710, 1.9600000399999999, 6, 0   
                    711, 1.9800000200000001, 6, 0   
                    712, 2, 6, 0    
                    713, 2.0199999800000001, 6, 0   
     LINE   720     714, 2.0399999599999998, 6, 0   
                    715, 2.05999994, 6, 0   
                    716, 2.0799999200000001, 6, 0   
                    717, 2.0999998999999998, 6, 0   
                    718, 2.1199998899999999, 6, 0   
     LINE   725     719, 2.1400001, 6, 0    
                    720, 2.16000009, 6, 0   
                    721, 2.1800000700000002, 6, 0   
                    722, 2.2000000499999999, 6, 0   
                    723, 2.22000003, 6, 0   
     LINE   730     724, 2.2400000100000002, 6, 0   
                    725, 2.2599999899999998, 6, 0   
                    726, 2.27999997, 6, 0   
                    727, 2.2999999500000001, 6, 0   
                    728, 2.3199999299999998, 6, 0   
     LINE   735     729, 2.33999991, 6, 0   
                    730, 2.3599999, 6, 0    
                    731, 2.3800001100000001, 6, 0   
                    732, 2.4000001000000002, 6, 0   
                    733, 2.4200000799999999, 6, 0   
     LINE   740     734, 2.44000006, 6, 0   
                    735, 2.4600000400000002, 6, 0   
                    736, 2.4800000199999999, 6, 0   
                    737, 2.5, 6, 0  
                    738, 2.5199999800000001, 6, 0   
     LINE   745     739, 2.5399999599999998, 6, 0   
                    740, 2.55999994, 6, 0   
                    741, 2.5799999200000001, 6, 0   
                    742, 2.5999998999999998, 6, 0   
                    743, 2.6199998899999999, 6, 0   
     LINE   750     744, 2.6400001, 6, 0    
                    745, 2.66000009, 6, 0   
                    746, 2.6800000700000002, 6, 0   
                    747, 2.7000000499999999, 6, 0   
                    748, 2.72000003, 6, 0   
     LINE   755     749, 2.7400000100000002, 6, 0   
                    750, 2.7599999899999998, 6, 0   
                    751, 2.77999997, 6, 0   
                    752, 2.7999999500000001, 6, 0   
                    753, 2.8199999299999998, 6, 0   
     LINE   760     754, 2.83999991, 6, 0   
                    755, 2.8599999, 6, 0    
                    756, 2.8800001100000001, 6, 0   
                    757, 2.9000001000000002, 6, 0   
                    758, 2.9200000799999999, 6, 0   
     LINE   765     759, 2.94000006, 6, 0   
                    760, 2.9600000400000002, 6, 0   
                    761, 2.9800000199999999, 6, 0   
                    762, 0.019999999599999999, 3, 0 
                    763, 0.039999999100000003, 3, 0 
     LINE   770     764, 0.059999998700000001, 3, 0 
                    765, 0.079999998200000005, 3, 0 
                    766, 0.10000000100000001, 3, 0  
                    767, 0.119999997, 3, 0  
                    768, 0.14000000100000001, 3, 0  
     LINE   775     769, 0.15999999600000001, 3, 0  
                    770, 0.18000000699999999, 3, 0  
                    771, 0.20000000300000001, 3, 0  
                    772, 0.219999999, 3, 0  
                    773, 0.23999999499999999, 3, 0  
     LINE   780     774, 0.25999999000000001, 3, 0  
                    775, 0.280000001, 3, 0  
                    776, 0.30000001199999998, 3, 0  
                    777, 0.31999999299999998, 3, 0  
                    778, 0.34000000400000002, 3, 0  
     LINE   785     779, 0.36000001399999998, 3, 0  
                    780, 0.37999999499999998, 3, 0  
                    781, 0.40000000600000002, 3, 0  
                    782, 0.41999998700000002, 3, 0  
                    783, 0.439999998, 3, 0  
     LINE   790     784, 0.46000000800000002, 3, 0  
                    785, 0.47999998900000002, 3, 0  
                    786, 0.5, 3, 0  
                    787, 0.519999981, 3, 0  
                    788, 0.540000021, 3, 0  
     LINE   795     789, 0.560000002, 3, 0  
                    790, 0.579999983, 3, 0  
                    791, 0.60000002399999997, 3, 0  
                    792, 0.62000000499999997, 3, 0  
                    793, 0.63999998599999997, 3, 0  
     LINE   800     794, 0.66000002599999996, 3, 0  
                    795, 0.68000000699999996, 3, 0  
                    796, 0.69999998799999996, 3, 0  
                    797, 0.72000002900000004, 3, 0  
                    798, 0.74000001000000004, 3, 0  
     LINE   805     799, 0.75999998999999996, 3, 0  
                    800, 0.77999997099999996, 3, 0  
                    801, 0.80000001200000004, 3, 0  
                    802, 0.81999999300000004, 3, 0  
                    803, 0.83999997400000004, 3, 0  
     LINE   810     804, 0.86000001400000003, 3, 0  
                    805, 0.87999999500000003, 3, 0  
                    806, 0.89999997600000003, 3, 0  
                    807, 0.920000017, 3, 0  
                    808, 0.939999998, 3, 0  
     LINE   815     809, 0.959999979, 3, 0  
                    810, 0.980000019, 3, 0  
                    811, 1, 3, 0    
                    812, 1.0199999799999999, 3, 0   
                    813, 1.0399999600000001, 3, 0   
     LINE   820     814, 1.05999994, 3, 0   
                    815, 1.0800000400000001, 3, 0   
                    816, 1.10000002, 3, 0   
                    817, 1.1200000000000001, 3, 0   
                    818, 1.13999999, 3, 0   
     LINE   825     819, 1.1599999700000001, 3, 0   
                    820, 1.17999995, 3, 0   
                    821, 1.2000000500000001, 3, 0   
                    822, 1.22000003, 3, 0   
                    823, 1.2400000099999999, 3, 0   
     LINE   830     824, 1.2599999900000001, 3, 0   
                    825, 1.27999997, 3, 0   
                    826, 1.2999999499999999, 3, 0   
                    827, 1.32000005, 3, 0   
                    828, 1.3400000299999999, 3, 0   
     LINE   835     829, 1.36000001, 3, 0   
                    830, 1.3799999999999999, 3, 0   
                    831, 1.39999998, 3, 0   
                    832, 1.4199999599999999, 3, 0   
                    833, 1.44000006, 3, 0   
     LINE   840     834, 1.4600000399999999, 3, 0   
                    835, 1.4800000200000001, 3, 0   
                    836, 1.5, 3, 0  
                    837, 1.5199999799999999, 3, 0   
                    838, 1.5399999600000001, 3, 0   
     LINE   845     839, 1.55999994, 3, 0   
                    840, 1.5800000400000001, 3, 0   
                    841, 1.60000002, 3, 0   
                    842, 1.6200000000000001, 3, 0   
                    843, 1.63999999, 3, 0   
     LINE   850     844, 1.6599999700000001, 3, 0   
                    845, 1.67999995, 3, 0   
                    846, 1.7000000500000001, 3, 0   
                    847, 1.72000003, 3, 0   
                    848, 1.7400000099999999, 3, 0   
     LINE   855     849, 1.7599999900000001, 3, 0   
                    850, 1.77999997, 3, 0   
                    851, 1.7999999499999999, 3, 0   
                    852, 1.82000005, 3, 0   
                    853, 1.8400000299999999, 3, 0   
     LINE   860     854, 1.86000001, 3, 0   
                    855, 1.8799999999999999, 3, 0   
                    856, 1.89999998, 3, 0   
                    857, 1.9199999599999999, 3, 0   
                    858, 1.94000006, 3, 0   
     LINE   865     859, 1.9600000399999999, 3, 0   
                    860, 1.9800000200000001, 3, 0   
                    861, 2, 3, 0    
                    862, 2.0199999800000001, 3, 0   
                    863, 2.0399999599999998, 3, 0   
     LINE   870     864, 2.05999994, 3, 0   
                    865, 2.0799999200000001, 3, 0   
                    866, 2.0999998999999998, 3, 0   
                    867, 2.1199998899999999, 3, 0   
                    868, 2.1400001, 3, 0    
     LINE   875     869, 2.16000009, 3, 0   
                    870, 2.1800000700000002, 3, 0   
                    871, 2.2000000499999999, 3, 0   
                    872, 2.22000003, 3, 0   
                    873, 2.2400000100000002, 3, 0   
     LINE   880     874, 2.2599999899999998, 3, 0   
                    875, 2.27999997, 3, 0   
                    876, 2.2999999500000001, 3, 0   
                    877, 2.3199999299999998, 3, 0   
                    878, 2.33999991, 3, 0   
     LINE   885     879, 2.3599999, 3, 0    
                    880, 2.3800001100000001, 3, 0   
                    881, 2.4000001000000002, 3, 0   
                    882, 2.4200000799999999, 3, 0   
                    883, 2.44000006, 3, 0   
     LINE   890     884, 2.4600000400000002, 3, 0   
                    885, 2.4800000199999999, 3, 0   
                    886, 2.5, 3, 0  
                    887, 2.5199999800000001, 3, 0   
                    888, 2.5399999599999998, 3, 0   
     LINE   895     889, 2.55999994, 3, 0   
                    890, 2.5799999200000001, 3, 0   
                    891, 2.5999998999999998, 3, 0   
                    892, 2.6199998899999999, 3, 0   
                    893, 2.6400001, 3, 0    
     LINE   900     894, 2.66000009, 3, 0   
                    895, 2.6800000700000002, 3, 0   
                    896, 2.7000000499999999, 3, 0   
                    897, 2.72000003, 3, 0   
                    898, 2.7400000100000002, 3, 0   
     LINE   905     899, 2.7599999899999998, 3, 0   
                    900, 2.77999997, 3, 0   
                    901, 2.7999999500000001, 3, 0   
                    902, 2.8199999299999998, 3, 0   
                    903, 2.83999991, 3, 0   
     LINE   910     904, 2.8599999, 3, 0    
                    905, 2.8800001100000001, 3, 0   
                    906, 2.9000001000000002, 3, 0   
                    907, 2.9200000799999999, 3, 0   
                    908, 2.94000006, 3, 0   
     LINE   915     909, 2.9600000400000002, 3, 0   
                    910, 2.9800000199999999, 3, 0   
                    911, 0, 0.019999999599999999, 0 
                    912, 0, 0.039999999100000003, 0 
                    913, 0, 0.059999998700000001, 0 
     LINE   920     914, 0, 0.079999998200000005, 0 
                    915, 0, 0.10000000100000001, 0  
                    916, 0, 0.119999997, 0  
                    917, 0, 0.14000000100000001, 0  
                    918, 0, 0.15999999600000001, 0  
     LINE   925     919, 0, 0.18000000699999999, 0  
                    920, 0, 0.20000000300000001, 0  
                    921, 0, 0.219999999, 0  
                    922, 0, 0.23999999499999999, 0  
                    923, 0, 0.25999999000000001, 0  
     LINE   930     924, 0, 0.280000001, 0  
                    925, 0, 0.30000001199999998, 0  
                    926, 0, 0.31999999299999998, 0  
                    927, 0, 0.34000000400000002, 0  
                    928, 0, 0.36000001399999998, 0  
     LINE   935     929, 0, 0.37999999499999998, 0  
                    930, 0, 0.40000000600000002, 0  
                    931, 0, 0.41999998700000002, 0  
                    932, 0, 0.439999998, 0  
                    933, 0, 0.46000000800000002, 0  
     LINE   940     934, 0, 0.47999998900000002, 0  
                    935, 0, 0.5, 0  
                    936, 0, 0.519999981, 0  
                    937, 0, 0.540000021, 0  
                    938, 0, 0.560000002, 0  
     LINE   945     939, 0, 0.579999983, 0  
                    940, 0, 0.60000002399999997, 0  
                    941, 0, 0.62000000499999997, 0  
                    942, 0, 0.63999998599999997, 0  
                    943, 0, 0.66000002599999996, 0  
     LINE   950     944, 0, 0.68000000699999996, 0  
                    945, 0, 0.69999998799999996, 0  
                    946, 0, 0.72000002900000004, 0  
                    947, 0, 0.74000001000000004, 0  
                    948, 0, 0.75999998999999996, 0  
     LINE   955     949, 0, 0.77999997099999996, 0  
                    950, 0, 0.80000001200000004, 0  
                    951, 0, 0.81999999300000004, 0  
                    952, 0, 0.83999997400000004, 0  
                    953, 0, 0.86000001400000003, 0  
     LINE   960     954, 0, 0.87999999500000003, 0  
                    955, 0, 0.89999997600000003, 0  
                    956, 0, 0.920000017, 0  
                    957, 0, 0.939999998, 0  
                    958, 0, 0.959999979, 0  
     LINE   965     959, 0, 0.980000019, 0  
                    960, 0, 1, 0    
                    961, 0, 1.0199999799999999, 0   
                    962, 0, 1.0399999600000001, 0   
                    963, 0, 1.05999994, 0   
     LINE   970     964, 0, 1.0800000400000001, 0   
                    965, 0, 1.10000002, 0   
                    966, 0, 1.1200000000000001, 0   
                    967, 0, 1.13999999, 0   
                    968, 0, 1.1599999700000001, 0   
     LINE   975     969, 0, 1.17999995, 0   
                    970, 0, 1.2000000500000001, 0   
                    971, 0, 1.22000003, 0   
                    972, 0, 1.2400000099999999, 0   
                    973, 0, 1.2599999900000001, 0   
     LINE   980     974, 0, 1.27999997, 0   
                    975, 0, 1.2999999499999999, 0   
                    976, 0, 1.32000005, 0   
                    977, 0, 1.3400000299999999, 0   
                    978, 0, 1.36000001, 0   
     LINE   985     979, 0, 1.3799999999999999, 0   
                    980, 0, 1.39999998, 0   
                    981, 0, 1.4199999599999999, 0   
                    982, 0, 1.44000006, 0   
                    983, 0, 1.4600000399999999, 0   
     LINE   990     984, 0, 1.4800000200000001, 0   
                    985, 0, 1.5, 0  
                    986, 0, 1.5199999799999999, 0   
                    987, 0, 1.5399999600000001, 0   
                    988, 0, 1.55999994, 0   
     LINE   995     989, 0, 1.5800000400000001, 0   
                    990, 0, 1.60000002, 0   
                    991, 0, 1.6200000000000001, 0   
                    992, 0, 1.63999999, 0   
                    993, 0, 1.6599999700000001, 0   
     LINE  1000     994, 0, 1.67999995, 0   
                    995, 0, 1.7000000500000001, 0   
                    996, 0, 1.72000003, 0   
                    997, 0, 1.7400000099999999, 0   
                    998, 0, 1.7599999900000001, 0   
     LINE  1005     999, 0, 1.77999997, 0   
                    1000, 0, 1.7999999499999999, 0  
                    1001, 0, 1.82000005, 0  
                    1002, 0, 1.8400000299999999, 0  
                    1003, 0, 1.86000001, 0  
     LINE  1010     1004, 0, 1.8799999999999999, 0  
                    1005, 0, 1.89999998, 0  
                    1006, 0, 1.9199999599999999, 0  
                    1007, 0, 1.94000006, 0  
                    1008, 0, 1.9600000399999999, 0  
     LINE  1015     1009, 0, 1.9800000200000001, 0  
                    1010, 0, 2, 0   
                    1011, 0, 2.0199999800000001, 0  
                    1012, 0, 2.0399999599999998, 0  
                    1013, 0, 2.05999994, 0  
     LINE  1020     1014, 0, 2.0799999200000001, 0  
                    1015, 0, 2.0999998999999998, 0  
                    1016, 0, 2.1199998899999999, 0  
                    1017, 0, 2.1400001, 0   
                    1018, 0, 2.16000009, 0  
     LINE  1025     1019, 0, 2.1800000700000002, 0  
                    1020, 0, 2.2000000499999999, 0  
                    1021, 0, 2.22000003, 0  
                    1022, 0, 2.2400000100000002, 0  
                    1023, 0, 2.2599999899999998, 0  
     LINE  1030     1024, 0, 2.27999997, 0  
                    1025, 0, 2.2999999500000001, 0  
                    1026, 0, 2.3199999299999998, 0  
                    1027, 0, 2.33999991, 0  
                    1028, 0, 2.3599999, 0   
     LINE  1035     1029, 0, 2.3800001100000001, 0  
                    1030, 0, 2.4000001000000002, 0  
                    1031, 0, 2.4200000799999999, 0  
                    1032, 0, 2.44000006, 0  
                    1033, 0, 2.4600000400000002, 0  
     LINE  1040     1034, 0, 2.4800000199999999, 0  
                    1035, 0, 2.5, 0 
                    1036, 0, 2.5199999800000001, 0  
                    1037, 0, 2.5399999599999998, 0  
                    1038, 0, 2.55999994, 0  
     LINE  1045     1039, 0, 2.5799999200000001, 0  
                    1040, 0, 2.5999998999999998, 0  
                    1041, 0, 2.6199998899999999, 0  
                    1042, 0, 2.6400001, 0   
                    1043, 0, 2.66000009, 0  
     LINE  1050     1044, 0, 2.6800000700000002, 0  
                    1045, 0, 2.7000000499999999, 0  
                    1046, 0, 2.72000003, 0  
                    1047, 0, 2.7400000100000002, 0  
                    1048, 0, 2.7599999899999998, 0  
     LINE  1055     1049, 0, 2.77999997, 0  
                    1050, 0, 2.7999999500000001, 0  
                    1051, 0, 2.8199999299999998, 0  
                    1052, 0, 2.83999991, 0  
                    1053, 0, 2.8599999, 0   
     LINE  1060     1054, 0, 2.8800001100000001, 0  
                    1055, 0, 2.9000001000000002, 0  
                    1056, 0, 2.9200000799999999, 0  
                    1057, 0, 2.94000006, 0  
                    1058, 0, 2.9600000400000002, 0  
     LINE  1065     1059, 0, 2.9800000199999999, 0  
                    1060, 3.0199999800000001, 9, 0  
                    1061, 3.0399999599999998, 9, 0  
                    1062, 3.05999994, 9, 0  
                    1063, 3.0799999200000001, 9, 0  
     LINE  1070     1064, 3.0999998999999998, 9, 0  
                    1065, 3.1199998899999999, 9, 0  
                    1066, 3.1400001, 9, 0   
                    1067, 3.16000009, 9, 0  
                    1068, 3.1800000700000002, 9, 0  
     LINE  1075     1069, 3.2000000499999999, 9, 0  
                    1070, 3.22000003, 9, 0  
                    1071, 3.2400000100000002, 9, 0  
                    1072, 3.2599999899999998, 9, 0  
                    1073, 3.27999997, 9, 0  
     LINE  1080     1074, 3.2999999500000001, 9, 0  
                    1075, 3.3199999299999998, 9, 0  
                    1076, 3.33999991, 9, 0  
                    1077, 3.3599999, 9, 0   
                    1078, 3.3800001100000001, 9, 0  
     LINE  1085     1079, 3.4000001000000002, 9, 0  
                    1080, 3.4200000799999999, 9, 0  
                    1081, 3.44000006, 9, 0  
                    1082, 3.4600000400000002, 9, 0  
                    1083, 3.4800000199999999, 9, 0  
     LINE  1090     1084, 3.5, 9, 0 
                    1085, 3.5199999800000001, 9, 0  
                    1086, 3.5399999599999998, 9, 0  
                    1087, 3.55999994, 9, 0  
                    1088, 3.5799999200000001, 9, 0  
     LINE  1095     1089, 3.5999998999999998, 9, 0  
                    1090, 3.6199998899999999, 9, 0  
                    1091, 3.6400001, 9, 0   
                    1092, 3.66000009, 9, 0  
                    1093, 3.6800000700000002, 9, 0  
     LINE  1100     1094, 3.7000000499999999, 9, 0  
                    1095, 3.72000003, 9, 0  
                    1096, 3.7400000100000002, 9, 0  
                    1097, 3.7599999899999998, 9, 0  
                    1098, 3.77999997, 9, 0  
     LINE  1105     1099, 3.7999999500000001, 9, 0  
                    1100, 3.8199999299999998, 9, 0  
                    1101, 3.83999991, 9, 0  
                    1102, 3.8599999, 9, 0   
                    1103, 3.8800001100000001, 9, 0  
     LINE  1110     1104, 3.9000001000000002, 9, 0  
                    1105, 3.9200000799999999, 9, 0  
                    1106, 3.94000006, 9, 0  
                    1107, 3.9600000400000002, 9, 0  
                    1108, 3.9800000199999999, 9, 0  
     LINE  1115     1109, 4, 9, 0   
                    1110, 4.0199999799999997, 9, 0  
                    1111, 4.0399999600000003, 9, 0  
                    1112, 4.05999994, 9, 0  
                    1113, 4.0799999199999997, 9, 0  
     LINE  1120     1114, 4.0999999000000003, 9, 0  
                    1115, 4.1199998899999999, 9, 0  
                    1116, 4.1399998699999996, 9, 0  
                    1117, 4.1599998500000002, 9, 0  
                    1118, 4.1799998299999999, 9, 0  
     LINE  1125     1119, 4.1999998099999996, 9, 0  
                    1120, 4.2199997900000001, 9, 0  
                    1121, 4.2399997699999998, 9, 0  
                    1122, 4.2600002300000002, 9, 0  
                    1123, 4.2800002099999999, 9, 0  
     LINE  1130     1124, 4.3000001900000004, 9, 0  
                    1125, 4.3200001700000001, 9, 0  
                    1126, 4.3400001499999998, 9, 0  
                    1127, 4.3600001300000004, 9, 0  
                    1128, 4.3800001100000001, 9, 0  
     LINE  1135     1129, 4.4000000999999997, 9, 0  
                    1130, 4.4200000800000003, 9, 0  
                    1131, 4.44000006, 9, 0  
                    1132, 4.4600000399999997, 9, 0  
                    1133, 4.4800000200000003, 9, 0  
     LINE  1140     1134, 4.5, 9, 0 
                    1135, 4.5199999799999997, 9, 0  
                    1136, 4.5399999600000003, 9, 0  
                    1137, 4.55999994, 9, 0  
                    1138, 4.5799999199999997, 9, 0  
     LINE  1145     1139, 4.5999999000000003, 9, 0  
                    1140, 4.6199998899999999, 9, 0  
                    1141, 4.6399998699999996, 9, 0  
                    1142, 4.6599998500000002, 9, 0  
                    1143, 4.6799998299999999, 9, 0  
     LINE  1150     1144, 4.6999998099999996, 9, 0  
                    1145, 4.7199997900000001, 9, 0  
                    1146, 4.7399997699999998, 9, 0  
                    1147, 4.7600002300000002, 9, 0  
                    1148, 4.7800002099999999, 9, 0  
     LINE  1155     1149, 4.8000001900000004, 9, 0  
                    1150, 4.8200001700000001, 9, 0  
                    1151, 4.8400001499999998, 9, 0  
                    1152, 4.8600001300000004, 9, 0  
                    1153, 4.8800001100000001, 9, 0  
     LINE  1160     1154, 4.9000000999999997, 9, 0  
                    1155, 4.9200000800000003, 9, 0  
                    1156, 4.94000006, 9, 0  
                    1157, 4.9600000399999997, 9, 0  
                    1158, 4.9800000200000003, 9, 0  
     LINE  1165     1159, 5, 9, 0   
                    1160, 5.0199999799999997, 9, 0  
                    1161, 5.0399999600000003, 9, 0  
                    1162, 5.05999994, 9, 0  
                    1163, 5.0799999199999997, 9, 0  
     LINE  1170     1164, 5.0999999000000003, 9, 0  
                    1165, 5.1199998899999999, 9, 0  
                    1166, 5.1399998699999996, 9, 0  
                    1167, 5.1599998500000002, 9, 0  
                    1168, 5.1799998299999999, 9, 0  
     LINE  1175     1169, 5.1999998099999996, 9, 0  
                    1170, 5.2199997900000001, 9, 0  
                    1171, 5.2399997699999998, 9, 0  
                    1172, 5.2600002300000002, 9, 0  
                    1173, 5.2800002099999999, 9, 0  
     LINE  1180     1174, 5.3000001900000004, 9, 0  
                    1175, 5.3200001700000001, 9, 0  
                    1176, 5.3400001499999998, 9, 0  
                    1177, 5.3600001300000004, 9, 0  
                    1178, 5.3800001100000001, 9, 0  
     LINE  1185     1179, 5.4000000999999997, 9, 0  
                    1180, 5.4200000800000003, 9, 0  
                    1181, 5.44000006, 9, 0  
                    1182, 5.4600000399999997, 9, 0  
                    1183, 5.4800000200000003, 9, 0  
     LINE  1190     1184, 5.5, 9, 0 
                    1185, 5.5199999799999997, 9, 0  
                    1186, 5.5399999600000003, 9, 0  
                    1187, 5.55999994, 9, 0  
                    1188, 5.5799999199999997, 9, 0  
     LINE  1195     1189, 5.5999999000000003, 9, 0  
                    1190, 5.6199998899999999, 9, 0  
                    1191, 5.6399998699999996, 9, 0  
                    1192, 5.6599998500000002, 9, 0  
                    1193, 5.6799998299999999, 9, 0  
     LINE  1200     1194, 5.6999998099999996, 9, 0  
                    1195, 5.7199997900000001, 9, 0  
                    1196, 5.7399997699999998, 9, 0  
                    1197, 5.7600002300000002, 9, 0  
                    1198, 5.7800002099999999, 9, 0  
     LINE  1205     1199, 5.8000001900000004, 9, 0  
                    1200, 5.8200001700000001, 9, 0  
                    1201, 5.8400001499999998, 9, 0  
                    1202, 5.8600001300000004, 9, 0  
                    1203, 5.8800001100000001, 9, 0  
     LINE  1210     1204, 5.9000000999999997, 9, 0  
                    1205, 5.9200000800000003, 9, 0  
                    1206, 5.94000006, 9, 0  
                    1207, 5.9600000399999997, 9, 0  
                    1208, 5.9800000200000003, 9, 0  
     LINE  1215     1209, 3.0199999800000001, 6, 0  
                    1210, 3.0399999599999998, 6, 0  
                    1211, 3.05999994, 6, 0  
                    1212, 3.0799999200000001, 6, 0  
                    1213, 3.0999998999999998, 6, 0  
     LINE  1220     1214, 3.1199998899999999, 6, 0  
                    1215, 3.1400001, 6, 0   
                    1216, 3.16000009, 6, 0  
                    1217, 3.1800000700000002, 6, 0  
                    1218, 3.2000000499999999, 6, 0  
     LINE  1225     1219, 3.22000003, 6, 0  
                    1220, 3.2400000100000002, 6, 0  
                    1221, 3.2599999899999998, 6, 0  
                    1222, 3.27999997, 6, 0  
                    1223, 3.2999999500000001, 6, 0  
     LINE  1230     1224, 3.3199999299999998, 6, 0  
                    1225, 3.33999991, 6, 0  
                    1226, 3.3599999, 6, 0   
                    1227, 3.3800001100000001, 6, 0  
                    1228, 3.4000001000000002, 6, 0  
     LINE  1235     1229, 3.4200000799999999, 6, 0  
                    1230, 3.44000006, 6, 0  
                    1231, 3.4600000400000002, 6, 0  
                    1232, 3.4800000199999999, 6, 0  
                    1233, 3.5, 6, 0 
     LINE  1240     1234, 3.5199999800000001, 6, 0  
                    1235, 3.5399999599999998, 6, 0  
                    1236, 3.55999994, 6, 0  
                    1237, 3.5799999200000001, 6, 0  
                    1238, 3.5999998999999998, 6, 0  
     LINE  1245     1239, 3.6199998899999999, 6, 0  
                    1240, 3.6400001, 6, 0   
                    1241, 3.66000009, 6, 0  
                    1242, 3.6800000700000002, 6, 0  
                    1243, 3.7000000499999999, 6, 0  
     LINE  1250     1244, 3.72000003, 6, 0  
                    1245, 3.7400000100000002, 6, 0  
                    1246, 3.7599999899999998, 6, 0  
                    1247, 3.77999997, 6, 0  
                    1248, 3.7999999500000001, 6, 0  
     LINE  1255     1249, 3.8199999299999998, 6, 0  
                    1250, 3.83999991, 6, 0  
                    1251, 3.8599999, 6, 0   
                    1252, 3.8800001100000001, 6, 0  
                    1253, 3.9000001000000002, 6, 0  
     LINE  1260     1254, 3.9200000799999999, 6, 0  
                    1255, 3.94000006, 6, 0  
                    1256, 3.9600000400000002, 6, 0  
                    1257, 3.9800000199999999, 6, 0  
                    1258, 4, 6, 0   
     LINE  1265     1259, 4.0199999799999997, 6, 0  
                    1260, 4.0399999600000003, 6, 0  
                    1261, 4.05999994, 6, 0  
                    1262, 4.0799999199999997, 6, 0  
                    1263, 4.0999999000000003, 6, 0  
     LINE  1270     1264, 4.1199998899999999, 6, 0  
                    1265, 4.1399998699999996, 6, 0  
                    1266, 4.1599998500000002, 6, 0  
                    1267, 4.1799998299999999, 6, 0  
                    1268, 4.1999998099999996, 6, 0  
     LINE  1275     1269, 4.2199997900000001, 6, 0  
                    1270, 4.2399997699999998, 6, 0  
                    1271, 4.2600002300000002, 6, 0  
                    1272, 4.2800002099999999, 6, 0  
                    1273, 4.3000001900000004, 6, 0  
     LINE  1280     1274, 4.3200001700000001, 6, 0  
                    1275, 4.3400001499999998, 6, 0  
                    1276, 4.3600001300000004, 6, 0  
                    1277, 4.3800001100000001, 6, 0  
                    1278, 4.4000000999999997, 6, 0  
     LINE  1285     1279, 4.4200000800000003, 6, 0  
                    1280, 4.44000006, 6, 0  
                    1281, 4.4600000399999997, 6, 0  
                    1282, 4.4800000200000003, 6, 0  
                    1283, 4.5, 6, 0 
     LINE  1290     1284, 4.5199999799999997, 6, 0  
                    1285, 4.5399999600000003, 6, 0  
                    1286, 4.55999994, 6, 0  
                    1287, 4.5799999199999997, 6, 0  
                    1288, 4.5999999000000003, 6, 0  
     LINE  1295     1289, 4.6199998899999999, 6, 0  
                    1290, 4.6399998699999996, 6, 0  
                    1291, 4.6599998500000002, 6, 0  
                    1292, 4.6799998299999999, 6, 0  
                    1293, 4.6999998099999996, 6, 0  
     LINE  1300     1294, 4.7199997900000001, 6, 0  
                    1295, 4.7399997699999998, 6, 0  
                    1296, 4.7600002300000002, 6, 0  
                    1297, 4.7800002099999999, 6, 0  
                    1298, 4.8000001900000004, 6, 0  
     LINE  1305     1299, 4.8200001700000001, 6, 0  
                    1300, 4.8400001499999998, 6, 0  
                    1301, 4.8600001300000004, 6, 0  
                    1302, 4.8800001100000001, 6, 0  
                    1303, 4.9000000999999997, 6, 0  
     LINE  1310     1304, 4.9200000800000003, 6, 0  
                    1305, 4.94000006, 6, 0  
                    1306, 4.9600000399999997, 6, 0  
                    1307, 4.9800000200000003, 6, 0  
                    1308, 5, 6, 0   
     LINE  1315     1309, 5.0199999799999997, 6, 0  
                    1310, 5.0399999600000003, 6, 0  
                    1311, 5.05999994, 6, 0  
                    1312, 5.0799999199999997, 6, 0  
                    1313, 5.0999999000000003, 6, 0  
     LINE  1320     1314, 5.1199998899999999, 6, 0  
                    1315, 5.1399998699999996, 6, 0  
                    1316, 5.1599998500000002, 6, 0  
                    1317, 5.1799998299999999, 6, 0  
                    1318, 5.1999998099999996, 6, 0  
     LINE  1325     1319, 5.2199997900000001, 6, 0  
                    1320, 5.2399997699999998, 6, 0  
                    1321, 5.2600002300000002, 6, 0  
                    1322, 5.2800002099999999, 6, 0  
                    1323, 5.3000001900000004, 6, 0  
     LINE  1330     1324, 5.3200001700000001, 6, 0  
                    1325, 5.3400001499999998, 6, 0  
                    1326, 5.3600001300000004, 6, 0  
                    1327, 5.3800001100000001, 6, 0  
                    1328, 5.4000000999999997, 6, 0  
     LINE  1335     1329, 5.4200000800000003, 6, 0  
                    1330, 5.44000006, 6, 0  
                    1331, 5.4600000399999997, 6, 0  
                    1332, 5.4800000200000003, 6, 0  
                    1333, 5.5, 6, 0 
     LINE  1340     1334, 5.5199999799999997, 6, 0  
                    1335, 5.5399999600000003, 6, 0  
                    1336, 5.55999994, 6, 0  
                    1337, 5.5799999199999997, 6, 0  
                    1338, 5.5999999000000003, 6, 0  
     LINE  1345     1339, 5.6199998899999999, 6, 0  
                    1340, 5.6399998699999996, 6, 0  
                    1341, 5.6599998500000002, 6, 0  
                    1342, 5.6799998299999999, 6, 0  
                    1343, 5.6999998099999996, 6, 0  
     LINE  1350     1344, 5.7199997900000001, 6, 0  
                    1345, 5.7399997699999998, 6, 0  
                    1346, 5.7600002300000002, 6, 0  
                    1347, 5.7800002099999999, 6, 0  
                    1348, 5.8000001900000004, 6, 0  
     LINE  1355     1349, 5.8200001700000001, 6, 0  
                    1350, 5.8400001499999998, 6, 0  
                    1351, 5.8600001300000004, 6, 0  
                    1352, 5.8800001100000001, 6, 0  
                    1353, 5.9000000999999997, 6, 0  
     LINE  1360     1354, 5.9200000800000003, 6, 0  
                    1355, 5.94000006, 6, 0  
                    1356, 5.9600000399999997, 6, 0  
                    1357, 5.9800000200000003, 6, 0  
                    1358, 3, 5.9800000200000003, 0  
     LINE  1365     1359, 3, 5.9600000399999997, 0  
                    1360, 3, 5.94000006, 0  
                    1361, 3, 5.9200000800000003, 0  
                    1362, 3, 5.9000000999999997, 0  
                    1363, 3, 5.8800001100000001, 0  
     LINE  1370     1364, 3, 5.8600001300000004, 0  
                    1365, 3, 5.8400001499999998, 0  
                    1366, 3, 5.8200001700000001, 0  
                    1367, 3, 5.8000001900000004, 0  
                    1368, 3, 5.7800002099999999, 0  
     LINE  1375     1369, 3, 5.7600002300000002, 0  
                    1370, 3, 5.7399997699999998, 0  
                    1371, 3, 5.7199997900000001, 0  
                    1372, 3, 5.6999998099999996, 0  
                    1373, 3, 5.6799998299999999, 0  
     LINE  1380     1374, 3, 5.6599998500000002, 0  
                    1375, 3, 5.6399998699999996, 0  
                    1376, 3, 5.6199998899999999, 0  
                    1377, 3, 5.5999999000000003, 0  
                    1378, 3, 5.5799999199999997, 0  
     LINE  1385     1379, 3, 5.55999994, 0  
                    1380, 3, 5.5399999600000003, 0  
                    1381, 3, 5.5199999799999997, 0  
                    1382, 3, 5.5, 0 
                    1383, 3, 5.4800000200000003, 0  
     LINE  1390     1384, 3, 5.4600000399999997, 0  
                    1385, 3, 5.44000006, 0  
                    1386, 3, 5.4200000800000003, 0  
                    1387, 3, 5.4000000999999997, 0  
                    1388, 3, 5.3800001100000001, 0  
     LINE  1395     1389, 3, 5.3600001300000004, 0  
                    1390, 3, 5.3400001499999998, 0  
                    1391, 3, 5.3200001700000001, 0  
                    1392, 3, 5.3000001900000004, 0  
                    1393, 3, 5.2800002099999999, 0  
     LINE  1400     1394, 3, 5.2600002300000002, 0  
                    1395, 3, 5.2399997699999998, 0  
                    1396, 3, 5.2199997900000001, 0  
                    1397, 3, 5.1999998099999996, 0  
                    1398, 3, 5.1799998299999999, 0  
     LINE  1405     1399, 3, 5.1599998500000002, 0  
                    1400, 3, 5.1399998699999996, 0  
                    1401, 3, 5.1199998899999999, 0  
                    1402, 3, 5.0999999000000003, 0  
                    1403, 3, 5.0799999199999997, 0  
     LINE  1410     1404, 3, 5.05999994, 0  
                    1405, 3, 5.0399999600000003, 0  
                    1406, 3, 5.0199999799999997, 0  
                    1407, 3, 5, 0   
                    1408, 3, 4.9800000200000003, 0  
     LINE  1415     1409, 3, 4.9600000399999997, 0  
                    1410, 3, 4.94000006, 0  
                    1411, 3, 4.9200000800000003, 0  
                    1412, 3, 4.9000000999999997, 0  
                    1413, 3, 4.8800001100000001, 0  
     LINE  1420     1414, 3, 4.8600001300000004, 0  
                    1415, 3, 4.8400001499999998, 0  
                    1416, 3, 4.8200001700000001, 0  
                    1417, 3, 4.8000001900000004, 0  
                    1418, 3, 4.7800002099999999, 0  
     LINE  1425     1419, 3, 4.7600002300000002, 0  
                    1420, 3, 4.7399997699999998, 0  
                    1421, 3, 4.7199997900000001, 0  
                    1422, 3, 4.6999998099999996, 0  
                    1423, 3, 4.6799998299999999, 0  
     LINE  1430     1424, 3, 4.6599998500000002, 0  
                    1425, 3, 4.6399998699999996, 0  
                    1426, 3, 4.6199998899999999, 0  
                    1427, 3, 4.5999999000000003, 0  
                    1428, 3, 4.5799999199999997, 0  
     LINE  1435     1429, 3, 4.55999994, 0  
                    1430, 3, 4.5399999600000003, 0  
                    1431, 3, 4.5199999799999997, 0  
                    1432, 3, 4.5, 0 
                    1433, 3, 4.4800000200000003, 0  
     LINE  1440     1434, 3, 4.4600000399999997, 0  
                    1435, 3, 4.44000006, 0  
                    1436, 3, 4.4200000800000003, 0  
                    1437, 3, 4.4000000999999997, 0  
                    1438, 3, 4.3800001100000001, 0  
     LINE  1445     1439, 3, 4.3600001300000004, 0  
                    1440, 3, 4.3400001499999998, 0  
                    1441, 3, 4.3200001700000001, 0  
                    1442, 3, 4.3000001900000004, 0  
                    1443, 3, 4.2800002099999999, 0  
     LINE  1450     1444, 3, 4.2600002300000002, 0  
                    1445, 3, 4.2399997699999998, 0  
                    1446, 3, 4.2199997900000001, 0  
                    1447, 3, 4.1999998099999996, 0  
                    1448, 3, 4.1799998299999999, 0  
     LINE  1455     1449, 3, 4.1599998500000002, 0  
                    1450, 3, 4.1399998699999996, 0  
                    1451, 3, 4.1199998899999999, 0  
                    1452, 3, 4.0999999000000003, 0  
                    1453, 3, 4.0799999199999997, 0  
     LINE  1460     1454, 3, 4.05999994, 0  
                    1455, 3, 4.0399999600000003, 0  
                    1456, 3, 4.0199999799999997, 0  
                    1457, 3, 4, 0   
                    1458, 3, 3.9800000199999999, 0  
     LINE  1465     1459, 3, 3.9600000400000002, 0  
                    1460, 3, 3.94000006, 0  
                    1461, 3, 3.9200000799999999, 0  
                    1462, 3, 3.9000001000000002, 0  
                    1463, 3, 3.8800001100000001, 0  
     LINE  1470     1464, 3, 3.8599999, 0   
                    1465, 3, 3.83999991, 0  
                    1466, 3, 3.8199999299999998, 0  
                    1467, 3, 3.7999999500000001, 0  
                    1468, 3, 3.77999997, 0  
     LINE  1475     1469, 3, 3.7599999899999998, 0  
                    1470, 3, 3.7400000100000002, 0  
                    1471, 3, 3.72000003, 0  
                    1472, 3, 3.7000000499999999, 0  
                    1473, 3, 3.6800000700000002, 0  
     LINE  1480     1474, 3, 3.66000009, 0  
                    1475, 3, 3.6400001, 0   
                    1476, 3, 3.6199998899999999, 0  
                    1477, 3, 3.5999998999999998, 0  
                    1478, 3, 3.5799999200000001, 0  
     LINE  1485     1479, 3, 3.55999994, 0  
                    1480, 3, 3.5399999599999998, 0  
                    1481, 3, 3.5199999800000001, 0  
                    1482, 3, 3.5, 0 
                    1483, 3, 3.4800000199999999, 0  
     LINE  1490     1484, 3, 3.4600000400000002, 0  
                    1485, 3, 3.44000006, 0  
                    1486, 3, 3.4200000799999999, 0  
                    1487, 3, 3.4000001000000002, 0  
                    1488, 3, 3.3800001100000001, 0  
     LINE  1495     1489, 3, 3.3599999, 0   
                    1490, 3, 3.33999991, 0  
                    1491, 3, 3.3199999299999998, 0  
                    1492, 3, 3.2999999500000001, 0  
                    1493, 3, 3.27999997, 0  
     LINE  1500     1494, 3, 3.2599999899999998, 0  
                    1495, 3, 3.2400000100000002, 0  
                    1496, 3, 3.22000003, 0  
                    1497, 3, 3.2000000499999999, 0  
                    1498, 3, 3.1800000700000002, 0  
     LINE  1505     1499, 3, 3.16000009, 0  
                    1500, 3, 3.1400001, 0   
                    1501, 3, 3.1199998899999999, 0  
                    1502, 3, 3.0999998999999998, 0  
                    1503, 3, 3.0799999200000001, 0  
     LINE  1510     1504, 3, 3.05999994, 0  
                    1505, 3, 3.0399999599999998, 0  
                    1506, 3, 3.0199999800000001, 0  
                    1507, 3, 2.9800000199999999, 0  
[...]
  PART-1-1                                         3002       3002      
  PART-1-1                                         3003       3003      
  PART-1-1                                         3004       3004      
  PART-1-1                                         3005       3005      
  PART-1-1                                         3006       3006      
  PART-1-1                                         3007       3007      
  PART-1-1                                         3008       3008      
  PART-1-1                                         3009       3009      
  PART-1-1                                         3010       3010      
  PART-1-1                                         3011       3011      
  PART-1-1                                         3012       3012      
  PART-1-1                                         3013       3013      
  PART-1-1                                         3014       3014      
  PART-1-1                                         3015       3015      
  PART-1-1                                         3016       3016      
  PART-1-1                                         3017       3017      
  PART-1-1                                         3018       3018      
  PART-1-1                                         3019       3019      
  PART-1-1                                         3020       3020      
  PART-1-1                                         3021       3021      
  PART-1-1                                         3022       3022      
  PART-1-1                                         3023       3023      
  PART-1-1                                         3024       3024      
  PART-1-1                                         3025       3025      
  PART-1-1                                         3026       3026      
  PART-1-1                                         3027       3027      
  PART-1-1                                         3028       3028      
  PART-1-1                                         3029       3029      
  PART-1-1                                         3030       3030      
  PART-1-1                                         3031       3031      
  PART-1-1                                         3032       3032      
  PART-1-1                                         3033       3033      
  PART-1-1                                         3034       3034      
  PART-1-1                                         3035       3035      
  PART-1-1                                         3036       3036      
  PART-1-1                                         3037       3037      
  PART-1-1                                         3038       3038      
  PART-1-1                                         3039       3039      
  PART-1-1                                         3040       3040      
  PART-1-1                                         3041       3041      
  PART-1-1                                         3042       3042      
  PART-1-1                                         3043       3043      
  PART-1-1                                         3044       3044      
  PART-1-1                                         3045       3045      
  PART-1-1                                         3046       3046      
  PART-1-1                                         3047       3047      
  PART-1-1                                         3048       3048      
  PART-1-1                                         3049       3049      
  PART-1-1                                         3050       3050      
  PART-1-1                                         3051       3051      
  PART-1-1                                         3052       3052      
  PART-1-1                                         3053       3053      
  PART-1-1                                         3054       3054      
  PART-1-1                                         3055       3055      
  PART-1-1                                         3056       3056      
  PART-1-1                                         3057       3057      
  PART-1-1                                         3058       3058      
  PART-1-1                                         3059       3059      
  PART-1-1                                         3060       3060      
  PART-1-1                                         3061       3061      
  PART-1-1                                         3062       3062      
  PART-1-1                                         3063       3063      
  PART-1-1                                         3064       3064      
  PART-1-1                                         3065       3065      
  PART-1-1                                         3066       3066      
  PART-1-1                                         3067       3067      
  PART-1-1                                         3068       3068      
  PART-1-1                                         3069       3069      
  PART-1-1                                         3070       3070      
  PART-1-1                                         3071       3071      
  PART-1-1                                         3072       3072      
  PART-1-1                                         3073       3073      
  PART-1-1                                         3074       3074      
  PART-1-1                                         3075       3075      
  PART-1-1                                         3076       3076      
  PART-1-1                                         3077       3077      
  PART-1-1                                         3078       3078      
  PART-1-1                                         3079       3079      
  PART-1-1                                         3080       3080      
  PART-1-1                                         3081       3081      
  PART-1-1                                         3082       3082      
  PART-1-1                                         3083       3083      
  PART-1-1                                         3084       3084      
  PART-1-1                                         3085       3085      
  PART-1-1                                         3086       3086      
  PART-1-1                                         3087       3087      
  PART-1-1                                         3088       3088      
  PART-1-1                                         3089       3089      
  PART-1-1                                         3090       3090      
  PART-1-1                                         3091       3091      
  PART-1-1                                         3092       3092      
  PART-1-1                                         3093       3093      
  PART-1-1                                         3094       3094      
  PART-1-1                                         3095       3095      
  PART-1-1                                         3096       3096      
  PART-1-1                                         3097       3097      
  PART-1-1                                         3098       3098      
  PART-1-1                                         3099       3099      
  PART-1-1                                         3100       3100      
  PART-1-1                                         3101       3101      
  PART-1-1                                         3102       3102      
  PART-1-1                                         3103       3103      
  PART-1-1                                         3104       3104      
  PART-1-1                                         3105       3105      
  PART-1-1                                         3106       3106      
  PART-1-1                                         3107       3107      
  PART-1-1                                         3108       3108      
  PART-1-1                                         3109       3109      
  PART-1-1                                         3110       3110      
  PART-1-1                                         3111       3111      
  PART-1-1                                         3112       3112      
  PART-1-1                                         3113       3113      
  PART-1-1                                         3114       3114      
  PART-1-1                                         3115       3115      
  PART-1-1                                         3116       3116      
  PART-1-1                                         3117       3117      
  PART-1-1                                         3118       3118      
  PART-1-1                                         3119       3119      
  PART-1-1                                         3120       3120      
  PART-1-1                                         3121       3121      
  PART-1-1                                         3122       3122      
  PART-1-1                                         3123       3123      
  PART-1-1                                         3124       3124      
  PART-1-1                                         3125       3125      
  PART-1-1                                         3126       3126      
  PART-1-1                                         3127       3127      
  PART-1-1                                         3128       3128      
  PART-1-1                                         3129       3129      
  PART-1-1                                         3130       3130      
  PART-1-1                                         3131       3131      
  PART-1-1                                         3132       3132      
  PART-1-1                                         3133       3133      
  PART-1-1                                         3134       3134      
  PART-1-1                                         3135       3135      
  PART-1-1                                         3136       3136      
  PART-1-1                                         3137       3137      
  PART-1-1                                         3138       3138      
  PART-1-1                                         3139       3139      
  PART-1-1                                         3140       3140      
  PART-1-1                                         3141       3141      
  PART-1-1                                         3142       3142      
  PART-1-1                                         3143       3143      
  PART-1-1                                         3144       3144      
  PART-1-1                                         3145       3145      
  PART-1-1                                         3146       3146      
  PART-1-1                                         3147       3147      
  PART-1-1                                         3148       3148      
  PART-1-1                                         3149       3149      
  PART-1-1                                         3150       3150      




                            P R O B L E M   S I Z E


          NUMBER OF ELEMENTS IS                                  3150
          NUMBER OF NODES IS                                     9445
          NUMBER OF NODES DEFINED BY THE USER                    3145
          NUMBER OF INTERNAL NODES GENERATED BY THE PROGRAM      6300
          TOTAL NUMBER OF VARIABLES IN THE MODEL                 9435
          (DEGREES OF FREEDOM PLUS MAX NO. OF ANY LAGRANGE MULTIPLIER
           VARIABLES. INCLUDE *PRINT,SOLVE=YES TO GET THE ACTUAL NUMBER.)



                              END OF USER INPUT PROCESSING



     JOB TIME SUMMARY
       USER TIME (SEC)      =  0.40000    
       SYSTEM TIME (SEC)    =  0.40000    
       TOTAL CPU TIME (SEC) =  0.80000    
       WALLCLOCK TIME (SEC) =          1
1

   Abaqus 2021                                  Date 27-3į┬-2026   Time 13:38:44
   For use by Supplied by Team-SolidSQUAD under license from Dassault Systemes or its subsidiary.

                                                                                               STEP    1  INCREMENT    1
                                                                                          TIME COMPLETED IN THIS STEP   0.00    


                        S T E P       1     S T A T I C   A N A L Y S I S


                                                                                          

     AUTOMATIC TIME CONTROL WITH -
          A SUGGESTED INITIAL TIME INCREMENT OF                 1.00    
          AND A TOTAL TIME PERIOD OF                            1.00    
          THE MINIMUM TIME INCREMENT ALLOWED IS                1.000E-05
          THE MAXIMUM TIME INCREMENT ALLOWED IS                 1.00    

     LINEAR EQUATION SOLVER TYPE         DIRECT SPARSE
  
                   M E M O R Y   E S T I M A T E
  
 PROCESS      FLOATING PT       MINIMUM MEMORY        MEMORY TO
              OPERATIONS           REQUIRED          MINIMIZE I/O
             PER ITERATION           (MB)               (MB)
  
     1          6.21E+05               22                 33
  
 NOTE:
      (1) SINCE ABAQUS DOES NOT PRE-ALLOCATE MEMORY AND ONLY ALLOCATES MEMORY AS NEEDED DURING THE ANALYSIS,
          THE MEMORY REQUIREMENT PRINTED HERE CAN ONLY BE VIEWED AS A GENERAL GUIDELINE BASED ON THE BEST
          KNOWLEDGE AVAILABLE AT THE BEGINNING OF A STEP BEFORE THE SOLUTION PROCESS HAS BEGUN.
      (2) THE ESTIMATE IS NORMALLY UPDATED AT THE BEGINNING OF EVERY STEP. IT IS THE MAXIMUM VALUE OF THE
          ESTIMATE FROM THE CURRENT STEP TO THE LAST STEP OF THE ANALYSIS, WITH UNSYMMETRIC SOLUTION TAKEN
          INTO ACCOUNT IF APPLICABLE. 
      (3) SINCE THE ESTIMATE IS BASED ON THE ACTIVE DEGREES OF FREEDOM IN THE FIRST ITERATION OF THE 
          CURRENT STEP, THE MEMORY ESTIMATE MIGHT BE SIGNIFICANTLY DIFFERENT THAN ACTUAL USAGE FOR 
          PROBLEMS WITH SUBSTANTIAL CHANGES IN ACTIVE DEGREES OF FREEDOM BETWEEN STEPS (OR EVEN WITHIN
          THE SAME STEP). EXAMPLES ARE: PROBLEMS WITH SIGNIFICANT CONTACT CHANGES, PROBLEMS WITH MODEL
          CHANGE, PROBLEMS WITH BOTH STATIC STEP AND STEADY STATE DYNAMIC PROCEDURES WHERE ACOUSTIC 
          ELEMENTS WILL ONLY BE ACTIVATED IN THE STEADY STATE DYNAMIC STEPS.
      (4) FOR MULTI-PROCESS EXECUTION, THE ESTIMATED VALUE OF FLOATING POINT OPERATIONS FOR EACH PROCESS
          IS BASED ON AN INITIAL SCHEDULING OF OPERATIONS AND MIGHT NOT REFLECT THE ACTUAL FLOATING 
          POINT OPERATIONS COMPLETED ON EACH PROCESS. OPERATIONS ARE DYNAMICALLY BALANCED DURING EXECUTION, 
          SO THE ACTUAL BALANCE OF OPERATIONS BETWEEN PROCESSES IS EXPECTED TO BE BETTER THAN THE ESTIMATE
          PRINTED HERE.
      (5) THE UPPER LIMIT OF MEMORY THAT CAN BE ALLOCATED BY ABAQUS WILL IN GENERAL DEPEND ON THE VALUE OF
          THE "MEMORY" PARAMETER AND THE AMOUNT OF PHYSICAL MEMORY AVAILABLE ON THE MACHINE. PLEASE SEE
          THE "ABAQUS ANALYSIS USER'S MANUAL" FOR MORE DETAILS. THE ACTUAL USAGE OF MEMORY AND OF DISK
          SPACE FOR SCRATCH DATA WILL DEPEND ON THIS UPPER LIMIT AS WELL AS THE MEMORY REQUIRED TO MINIMIZE
          I/O. IF THE MEMORY UPPER LIMIT IS GREATER THAN THE MEMORY REQUIRED TO MINIMIZE I/O, THEN THE ACTUAL
          MEMORY USAGE WILL BE CLOSE TO THE ESTIMATED "MEMORY TO MINIMIZE I/O" VALUE, AND THE SCRATCH DISK
          USAGE WILL BE CLOSE-TO-ZERO; OTHERWISE, THE ACTUAL MEMORY USED WILL BE CLOSE TO THE PREVIOUSLY
          MENTIONED MEMORY LIMIT, AND THE SCRATCH DISK USAGE WILL BE ROUGHLY PROPORTIONAL TO THE DIFFERENCE
          BETWEEN THE ESTIMATED "MEMORY TO MINIMIZE I/O" AND THE MEMORY UPPER LIMIT. HOWEVER ACCURATE
          ESTIMATE OF THE SCRATCH DISK SPACE IS NOT POSSIBLE.
      (6) USING "*RESTART, WRITE" CAN GENERATE A LARGE AMOUNT OF DATA WRITTEN IN THE WORK DIRECTORY.
1

   Abaqus 2021                                  Date 27-3į┬-2026   Time 13:38:44
   For use by Supplied by Team-SolidSQUAD under license from Dassault Systemes or its subsidiary.

                                                                                               STEP    2  INCREMENT    1
                                                                                          TIME COMPLETED IN THIS STEP   0.00    
 


                        S T E P       2     M A T R I X   G E N E R A T E
 
  THE FOLLOWING GLOBAL MATRICES WILL BE GENERATED AND WRITTEN TO Job-frame33-9000_X2.sim

    STIFFNESS
    LOAD
 
  IF MULTI-POINT CONSTRAINTS ARE SPECIFIED IN THE MODEL, THEY WILL BE APPLIED
 
  THE FOLLOWING GLOBAL MATRICES WILL BE WRITTEN TO THE FOLLOWING TEXT FILES

    STIFFNESS          TO Job-frame33-9000_STIF2.mtx
    LOAD               TO Job-frame33-9000_LOAD2.mtx
 
  MATRIX OUTPUT FORMAT - MATRIX INPUT
  
                   M E M O R Y   E S T I M A T E
  
 PROCESS      FLOATING PT       MINIMUM MEMORY        MEMORY TO
              OPERATIONS           REQUIRED          MINIMIZE I/O
             PER ITERATION           (MB)               (MB)
  
     1          0.00E+00               22                 24
  
 NOTE:
      (1) SINCE ABAQUS DOES NOT PRE-ALLOCATE MEMORY AND ONLY ALLOCATES MEMORY AS NEEDED DURING THE ANALYSIS,
          THE MEMORY REQUIREMENT PRINTED HERE CAN ONLY BE VIEWED AS A GENERAL GUIDELINE BASED ON THE BEST
          KNOWLEDGE AVAILABLE AT THE BEGINNING OF A STEP BEFORE THE SOLUTION PROCESS HAS BEGUN.
      (2) THE ESTIMATE IS NORMALLY UPDATED AT THE BEGINNING OF EVERY STEP. IT IS THE MAXIMUM VALUE OF THE
          ESTIMATE FROM THE CURRENT STEP TO THE LAST STEP OF THE ANALYSIS, WITH UNSYMMETRIC SOLUTION TAKEN
          INTO ACCOUNT IF APPLICABLE. 
      (3) SINCE THE ESTIMATE IS BASED ON THE ACTIVE DEGREES OF FREEDOM IN THE FIRST ITERATION OF THE 
          CURRENT STEP, THE MEMORY ESTIMATE MIGHT BE SIGNIFICANTLY DIFFERENT THAN ACTUAL USAGE FOR 
          PROBLEMS WITH SUBSTANTIAL CHANGES IN ACTIVE DEGREES OF FREEDOM BETWEEN STEPS (OR EVEN WITHIN
          THE SAME STEP). EXAMPLES ARE: PROBLEMS WITH SIGNIFICANT CONTACT CHANGES, PROBLEMS WITH MODEL
          CHANGE, PROBLEMS WITH BOTH STATIC STEP AND STEADY STATE DYNAMIC PROCEDURES WHERE ACOUSTIC 
          ELEMENTS WILL ONLY BE ACTIVATED IN THE STEADY STATE DYNAMIC STEPS.
      (4) FOR MULTI-PROCESS EXECUTION, THE ESTIMATED VALUE OF FLOATING POINT OPERATIONS FOR EACH PROCESS
          IS BASED ON AN INITIAL SCHEDULING OF OPERATIONS AND MIGHT NOT REFLECT THE ACTUAL FLOATING 
          POINT OPERATIONS COMPLETED ON EACH PROCESS. OPERATIONS ARE DYNAMICALLY BALANCED DURING EXECUTION, 
          SO THE ACTUAL BALANCE OF OPERATIONS BETWEEN PROCESSES IS EXPECTED TO BE BETTER THAN THE ESTIMATE
          PRINTED HERE.
      (5) THE UPPER LIMIT OF MEMORY THAT CAN BE ALLOCATED BY ABAQUS WILL IN GENERAL DEPEND ON THE VALUE OF
          THE "MEMORY" PARAMETER AND THE AMOUNT OF PHYSICAL MEMORY AVAILABLE ON THE MACHINE. PLEASE SEE
          THE "ABAQUS ANALYSIS USER'S MANUAL" FOR MORE DETAILS. THE ACTUAL USAGE OF MEMORY AND OF DISK
          SPACE FOR SCRATCH DATA WILL DEPEND ON THIS UPPER LIMIT AS WELL AS THE MEMORY REQUIRED TO MINIMIZE
          I/O. IF THE MEMORY UPPER LIMIT IS GREATER THAN THE MEMORY REQUIRED TO MINIMIZE I/O, THEN THE ACTUAL
          MEMORY USAGE WILL BE CLOSE TO THE ESTIMATED "MEMORY TO MINIMIZE I/O" VALUE, AND THE SCRATCH DISK
          USAGE WILL BE CLOSE-TO-ZERO; OTHERWISE, THE ACTUAL MEMORY USED WILL BE CLOSE TO THE PREVIOUSLY
          MENTIONED MEMORY LIMIT, AND THE SCRATCH DISK USAGE WILL BE ROUGHLY PROPORTIONAL TO THE DIFFERENCE
          BETWEEN THE ESTIMATED "MEMORY TO MINIMIZE I/O" AND THE MEMORY UPPER LIMIT. HOWEVER ACCURATE
          ESTIMATE OF THE SCRATCH DISK SPACE IS NOT POSSIBLE.
      (6) USING "*RESTART, WRITE" CAN GENERATE A LARGE AMOUNT OF DATA WRITTEN IN THE WORK DIRECTORY.
  


          THE ANALYSIS HAS BEEN COMPLETED



                              ANALYSIS COMPLETE



     JOB TIME SUMMARY
       USER TIME (SEC)      =  0.40000    
       SYSTEM TIME (SEC)    =  0.10000    
       TOTAL CPU TIME (SEC) =  0.50000    
       WALLCLOCK TIME (SEC) =          0
